New line.linha_MCLD205_2549 bus1 = 2126 bus2 = 1803 length = 0.262 phases = 3 r1 = 0.21379773 x1 = 0.22916307 r0 = 0.64139315 x0 = 0.68748916 c1 = 0 c0 = 0 units = km normamps = 456.22595 
New line.linha_MCLD205_2554 bus1 = 1803 bus2 = 278 length = 0.114 phases = 3 r1 = 0.2469 x1 = 0.26100002 r0 = 0.74069999 x0 = 0.78299999 c1 = 0 c0 = 0 units = km normamps = 456 
New line.linha_MCLD205_2560 bus1 = 1814 bus2 = 1812 length = 0.1021 phases = 3 r1 = 0.2006 x1 = 0.40260002 r0 = 0.72000002 x0 = 1.407 c1 = 0 c0 = 0 units = km normamps = 576 
New line.linha_MCLD205_2561 bus1 = 1812 bus2 = 1811 length = 0.26820001 phases = 3 r1 = 0.2006 x1 = 0.4026 r0 = 0.72000003 x0 = 1.4069999 c1 = 0 c0 = 0 units = km normamps = 576 
New line.linha_MCLD205_2559 bus1 = 1801 bus2 = 1800 length = 0.035 phases = 3 r1 = 0.24689999 x1 = 0.26100002 r0 = 0.74069998 x0 = 0.78299999 c1 = 0 c0 = 0 units = km normamps = 456 
New line.linha_MCLD205_2562 bus1 = 1811 bus2 = 1810 length = 0.1723 phases = 3 r1 = 0.20059999 x1 = 0.40259998 r0 = 0.72000001 x0 = 1.407 c1 = 0 c0 = 0 units = km normamps = 576 
New line.linha_MCLD205_2563 bus1 = 1810 bus2 = 1808 length = 0.48019999 phases = 3 r1 = 0.20059999 x1 = 0.40259999 r0 = 0.72000005 x0 = 1.407 c1 = 0 c0 = 0 units = km normamps = 576 
New line.linha_MCLD205_2565 bus1 = 1808 bus2 = 276 length = 0.37889999 phases = 3 r1 = 0.2006 x1 = 0.40260001 r0 = 0.72000004 x0 = 1.4069999 c1 = 0 c0 = 0 units = km normamps = 576 
New line.linha_MCLD205_2564 bus1 = 1810 bus2 = 1809 length = 0.029200001 phases = 3 r1 = 1.0145 x1 = 0.46790001 r0 = 1.7625 x0 = 1.8902 c1 = 0 c0 = 0 units = km normamps = 201 
New line.linha_MCLD205_2566 bus1 = 276 bus2 = 1824 length = 0.1778 phases = 3 r1 = 0.20059999 x1 = 0.40259999 r0 = 0.72000002 x0 = 1.407 c1 = 0 c0 = 0 units = km normamps = 576 
New line.linha_MCLD205_2567 bus1 = 1824 bus2 = 1823 length = 0.1802 phases = 3 r1 = 0.20060001 x1 = 0.40260001 r0 = 0.72000008 x0 = 1.4069999 c1 = 0 c0 = 0 units = km normamps = 576 
New line.linha_MCLD205_2568 bus1 = 1823 bus2 = 1822 length = 0.031800002 phases = 3 r1 = 0.20060001 x1 = 0.40259997 r0 = 0.72000003 x0 = 1.4069999 c1 = 0 c0 = 0 units = km normamps = 576 
//New line.linha_MCLD205_2570 bus1 = 1822 bus2 = NA_4047 length = 0.032499999 phases = 3 r1 = 0.2006 x1 = 0.4026 r0 = 0.71999999 x0 = 1.4069999 c1 = 0 c0 = 0 units = km normamps = 576 
New line.linha_MCLD205_2571 bus1 = 275 bus2 = 1820 length = 0.0297 phases = 3 r1 = 0.20060001 x1 = 0.4026 r0 = 0.72000004 x0 = 1.4069999 c1 = 0 c0 = 0 units = km normamps = 576 
New line.linha_MCLD205_2573 bus1 = 1820 bus2 = 273 length = 0.16339999 phases = 3 r1 = 0.20060001 x1 = 0.40259997 r0 = 0.72000003 x0 = 1.407 c1 = 0 c0 = 0 units = km normamps = 576 
New line.linha_MCLD205_2576 bus1 = 273 bus2 = 1818 length = 0.052000001 phases = 3 r1 = 0.20059999 x1 = 0.40259998 r0 = 0.72 x0 = 1.4069999 c1 = 0 c0 = 0 units = km normamps = 576 
New line.linha_MCLD205_2580 bus1 = 1818 bus2 = 1817 length = 0.1587 phases = 3 r1 = 0.2006 x1 = 0.40259998 r0 = 0.71999998 x0 = 1.4069999 c1 = 0 c0 = 0 units = km normamps = 576 
New line.linha_MCLD205_2574 bus1 = 1859 bus2 = 1858 length = 0.1424 phases = 3 r1 = 1.6117999 x1 = 0.48530002 r0 = 2.3877002 x0 = 1.9433001 c1 = 0 c0 = 0 units = km normamps = 150 
New line.linha_MCLD205_2582 bus1 = 1817 bus2 = 272 length = 0.1085 phases = 3 r1 = 0.20060001 x1 = 0.40260001 r0 = 0.72000001 x0 = 1.4069999 c1 = 0 c0 = 0 units = km normamps = 576 
New line.linha_MCLD205_2578 bus1 = 1857 bus2 = 1854 length = 0.095899999 phases = 3 r1 = 1.0145 x1 = 0.46790001 r0 = 1.7625001 x0 = 1.8902001 c1 = 0 c0 = 0 units = km normamps = 201 
New line.linha_MCLD205_2583 bus1 = 1864 bus2 = 1863 length = 0.023499999 phases = 3 r1 = 1.0145 x1 = 0.46790001 r0 = 1.7625 x0 = 1.8902 c1 = 0 c0 = 0 units = km normamps = 201 
New line.linha_MCLD205_2587 bus1 = 270 bus2 = 1868 length = 0.0244 phases = 3 r1 = 0.63749998 x1 = 0.45039999 r0 = 1.3434 x0 = 1.6343999 c1 = 0 c0 = 0 units = km normamps = 272 
New line.linha_MCLD205_2589 bus1 = 269 bus2 = 1877 length = 0.0854 phases = 3 r1 = 0.73940005 x1 = 0.30479999 r0 = 2.2181999 x0 = 0.91440002 c1 = 0 c0 = 0 units = km normamps = 229 
New line.linha_MCLD205_2591 bus1 = 1877 bus2 = 1876 length = 0.1218 phases = 3 r1 = 0.73940005 x1 = 0.30480002 r0 = 2.2181999 x0 = 0.91439998 c1 = 0 c0 = 0 units = km normamps = 229 
New line.linha_MCLD205_2593 bus1 = 1876 bus2 = 1875 length = 0.037599999 phases = 3 r1 = 0.73940003 x1 = 0.30480001 r0 = 2.2181999 x0 = 0.91439995 c1 = 0 c0 = 0 units = km normamps = 229 
New line.linha_MCLD205_2600 bus1 = 264 bus2 = 263 length = 0.067599997 phases = 3 r1 = 0.2006 x1 = 0.40260001 r0 = 0.72 x0 = 1.407 c1 = 0 c0 = 0 units = km normamps = 576 
New line.linha_MCLD205_2603 bus1 = 263 bus2 = 259 length = 0.1566 phases = 3 r1 = 0.2006 x1 = 0.4026 r0 = 0.72000004 x0 = 1.4069999 c1 = 0 c0 = 0 units = km normamps = 576 
New line.linha_MCLD205_2596 bus1 = 1876 bus2 = 1873 length = 0.0757 phases = 3 r1 = 1.0145 x1 = 0.46790003 r0 = 1.2781001 x0 = 0.94950001 c1 = 0 c0 = 0 units = km normamps = 201 
New line.linha_MCLD205_2601 bus1 = 1873 bus2 = 1872 length = 0.16509999 phases = 3 r1 = 1.0145001 x1 = 0.46789998 r0 = 1.2781 x0 = 0.94950001 c1 = 0 c0 = 0 units = km normamps = 201 
//New line.linha_MCLD205_2607 bus1 = 259 bus2 = NA_4059 length = 0.1508 phases = 3 r1 = 0.2006 x1 = 0.40259999 r0 = 0.72000004 x0 = 1.4069999 c1 = 0 c0 = 0 units = km normamps = 576 
New line.linha_MCLD205_2602 bus1 = 254 bus2 = 1887 length = 0.046100002 phases = 3 r1 = 1.0145 x1 = 0.46790001 r0 = 1.7625001 x0 = 1.8901999 c1 = 0 c0 = 0 units = km normamps = 201 
New line.linha_MCLD205_2605 bus1 = 1887 bus2 = 1886 length = 0.2297 phases = 3 r1 = 1.0145 x1 = 0.4679 r0 = 1.7625 x0 = 1.8902 c1 = 0 c0 = 0 units = km normamps = 201 
New line.linha_MCLD205_2604 bus1 = 1872 bus2 = 1870 length = 0.1494 phases = 3 r1 = 1.0145 x1 = 0.4679 r0 = 1.2781 x0 = 0.94950005 c1 = 0 c0 = 0 units = km normamps = 201 
New line.linha_MCLD205_2610 bus1 = 1886 bus2 = 1884 length = 0.032000002 phases = 3 r1 = 1.0145 x1 = 0.4679 r0 = 1.7625001 x0 = 1.8902001 c1 = 0 c0 = 0 units = km normamps = 201 
New line.linha_MCLD205_2613 bus1 = 1884 bus2 = 1883 length = 0.2362 phases = 3 r1 = 1.0145 x1 = 0.46790001 r0 = 1.7625001 x0 = 1.8902 c1 = 0 c0 = 0 units = km normamps = 201 
New line.linha_MCLD205_2615 bus1 = 246 bus2 = 243 length = 0.032200001 phases = 3 r1 = 0.2006 x1 = 0.40260002 r0 = 0.72000002 x0 = 1.407 c1 = 0 c0 = 0 units = km normamps = 576 
New line.linha_MCLD205_2617 bus1 = 243 bus2 = 242 length = 0.1232 phases = 3 r1 = 0.2006 x1 = 0.4026 r0 = 0.72000006 x0 = 1.4069999 c1 = 0 c0 = 0 units = km normamps = 576 
New line.linha_MCLD205_2614 bus1 = 1883 bus2 = 1881 length = 0.1166 phases = 3 r1 = 1.0145 x1 = 0.4679 r0 = 1.7625 x0 = 1.8902001 c1 = 0 c0 = 0 units = km normamps = 201 
//New line.linha_MCLD205_2616 bus1 = 1881 bus2 = NA_4063 length = 0.099799998 phases = 3 r1 = 1.0145 x1 = 0.46790003 r0 = 1.7625001 x0 = 1.8902001 c1 = 0 c0 = 0 units = km normamps = 201 
New line.linha_MCLD205_2618 bus1 = 242 bus2 = 241 length = 0.1124 phases = 3 r1 = 0.2006 x1 = 0.40260001 r0 = 0.72000005 x0 = 1.407 c1 = 0 c0 = 0 units = km normamps = 576 
New line.linha_MCLD205_2620 bus1 = 241 bus2 = 239 length = 0.20630001 phases = 3 r1 = 0.2006 x1 = 0.4026 r0 = 0.72000005 x0 = 1.4069999 c1 = 0 c0 = 0 units = km normamps = 576 
New line.linha_MCLD205_2621 bus1 = 239 bus2 = 238 length = 0.0184 phases = 3 r1 = 0.2006 x1 = 0.40259999 r0 = 0.72000007 x0 = 1.4069999 c1 = 0 c0 = 0 units = km normamps = 576 
New line.linha_MCLD205_2624 bus1 = 238 bus2 = 236 length = 0.066399999 phases = 3 r1 = 0.2006 x1 = 0.40259998 r0 = 0.72000008 x0 = 1.407 c1 = 0 c0 = 0 units = km normamps = 576 
New line.linha_MCLD205_2626 bus1 = 1906 bus2 = 1900 length = 0.1886 phases = 3 r1 = 1.0145 x1 = 0.46790003 r0 = 1.7625001 x0 = 1.8902 c1 = 0 c0 = 0 units = km normamps = 201 
New line.linha_MCLD205_2627 bus1 = 1906 bus2 = 1901 length = 0.051199999 phases = 3 r1 = 1.0145 x1 = 0.46790001 r0 = 1.7625001 x0 = 1.8901999 c1 = 0 c0 = 0 units = km normamps = 201 
New line.linha_MCLD205_2629 bus1 = 1847 bus2 = 1846 length = 0.059599999 phases = 3 r1 = 1.0145 x1 = 0.46790001 r0 = 1.7625 x0 = 1.8902001 c1 = 0 c0 = 0 units = km normamps = 201 
New line.linha_MCLD205_2633 bus1 = 1846 bus2 = 1845 length = 0.0188 phases = 3 r1 = 1.0145 x1 = 0.46789999 r0 = 1.7625001 x0 = 1.8902 c1 = 0 c0 = 0 units = km normamps = 201 
New line.linha_MCLD205_2631 bus1 = 1902 bus2 = 1899 length = 0.125 phases = 3 r1 = 1.0145 x1 = 0.4679 r0 = 1.7625001 x0 = 1.8902 c1 = 0 c0 = 0 units = km normamps = 201 
New line.linha_MCLD205_2636 bus1 = 1898 bus2 = 1897 length = 0.1223 phases = 3 r1 = 1.0145 x1 = 0.46789999 r0 = 1.7625001 x0 = 1.8902 c1 = 0 c0 = 0 units = km normamps = 201 
New line.linha_MCLD205_2642 bus1 = 234 bus2 = 232 length = 0.032699998 phases = 3 r1 = 0.2006 x1 = 0.40260001 r0 = 0.72000003 x0 = 1.4069999 c1 = 0 c0 = 0 units = km normamps = 576 
New line.linha_MCLD205_2647 bus1 = 232 bus2 = 231 length = 0.043900002 phases = 3 r1 = 0.20059999 x1 = 0.40260001 r0 = 0.72000005 x0 = 1.4069999 c1 = 0 c0 = 0 units = km normamps = 576 
New line.linha_MCLD205_2641 bus1 = 235 bus2 = 1981 length = 0.1169 phases = 3 r1 = 1.6118 x1 = 0.48530003 r0 = 2.3877002 x0 = 1.9433001 c1 = 0 c0 = 0 units = km normamps = 150 
New line.linha_MCLD205_2645 bus1 = 1981 bus2 = 1980 length = 0.3712 phases = 3 r1 = 1.6118 x1 = 0.48530001 r0 = 2.3877001 x0 = 1.9432999 c1 = 0 c0 = 0 units = km normamps = 150 
New line.linha_MCLD205_2638 bus1 = 1914 bus2 = 1911 length = 0.065800004 phases = 3 r1 = 1.0145 x1 = 0.4679 r0 = 1.7625001 x0 = 1.8902002 c1 = 0 c0 = 0 units = km normamps = 201 
New line.linha_MCLD205_2643 bus1 = 1911 bus2 = 1910 length = 0.1452 phases = 3 r1 = 1.0145 x1 = 0.46790002 r0 = 1.7625001 x0 = 1.8902 c1 = 0 c0 = 0 units = km normamps = 201 
New line.linha_MCLD205_2646 bus1 = 234 bus2 = 1987 length = 0.125 phases = 3 r1 = 1.6117999 x1 = 0.48530003 r0 = 2.3877001 x0 = 1.9433001 c1 = 0 c0 = 0 units = km normamps = 150 
New line.linha_MCLD205_2651 bus1 = 1987 bus2 = 1986 length = 0.16580001 phases = 3 r1 = 1.6117999 x1 = 0.48530002 r0 = 2.3877002 x0 = 1.9433 c1 = 0 c0 = 0 units = km normamps = 150 
New line.linha_MCLD205_2644 bus1 = 1977 bus2 = 1975 length = 0.084600002 phases = 3 r1 = 0.3184 x1 = 0.42370001 r0 = 0.83779995 x0 = 1.4285999 c1 = 0 c0 = 0 units = km normamps = 425 
New line.linha_MCLD205_2650 bus1 = 1975 bus2 = 1974 length = 0.0166 phases = 3 r1 = 0.3184 x1 = 0.42369999 r0 = 0.83779999 x0 = 1.4285999 c1 = 0 c0 = 0 units = km normamps = 425 
New line.linha_MCLD205_2649 bus1 = 1913 bus2 = 1908 length = 0.077600002 phases = 3 r1 = 1.0145 x1 = 0.46789999 r0 = 1.7625 x0 = 1.8902 c1 = 0 c0 = 0 units = km normamps = 201 
New line.linha_MCLD205_2652 bus1 = 1894 bus2 = 1892 length = 0.1069 phases = 3 r1 = 1.0145001 x1 = 0.46790002 r0 = 1.7625 x0 = 1.8902 c1 = 0 c0 = 0 units = km normamps = 201 
New line.linha_MCLD205_2654 bus1 = 1894 bus2 = 1889 length = 0.064499997 phases = 3 r1 = 1.0145 x1 = 0.46789999 r0 = 1.7625001 x0 = 1.8901999 c1 = 0 c0 = 0 units = km normamps = 201 
New line.linha_MCLD205_2658 bus1 = 1986 bus2 = 1985 length = 0.1653 phases = 3 r1 = 1.6118 x1 = 0.4853 r0 = 2.3877001 x0 = 1.9433001 c1 = 0 c0 = 0 units = km normamps = 150 
New line.linha_MCLD205_2659 bus1 = 1986 bus2 = 1984 length = 0.028200001 phases = 3 r1 = 0.73940001 x1 = 0.3048 r0 = 2.2182001 x0 = 0.91439998 c1 = 0 c0 = 0 units = km normamps = 229 
New line.linha_MCLD205_2663 bus1 = 229 bus2 = 228 length = 0.027000001 phases = 3 r1 = 0.2006 x1 = 0.40259998 r0 = 0.72000003 x0 = 1.4069999 c1 = 0 c0 = 0 units = km normamps = 576 
New line.linha_MCLD205_2668 bus1 = 228 bus2 = 227 length = 0.127 phases = 3 r1 = 0.20059999 x1 = 0.40259999 r0 = 0.72000003 x0 = 1.407 c1 = 0 c0 = 0 units = km normamps = 576 
New line.linha_MCLD205_2661 bus1 = 1970 bus2 = 1969 length = 0.076899998 phases = 3 r1 = 0.3184 x1 = 0.42369998 r0 = 0.83779996 x0 = 1.4285999 c1 = 0 c0 = 0 units = km normamps = 425 
New line.linha_MCLD205_2666 bus1 = 1969 bus2 = 1968 length = 0.1165 phases = 3 r1 = 0.31839998 x1 = 0.4237 r0 = 0.83780003 x0 = 1.4285999 c1 = 0 c0 = 0 units = km normamps = 425 
New line.linha_MCLD205_2667 bus1 = 229 bus2 = 1991 length = 0.1246 phases = 3 r1 = 0.73940004 x1 = 0.30479999 r0 = 2.2182 x0 = 0.91440003 c1 = 0 c0 = 0 units = km normamps = 229 
New line.linha_MCLD205_2676 bus1 = 1991 bus2 = 1989 length = 0.16580001 phases = 3 r1 = 0.73940003 x1 = 0.30480001 r0 = 2.2181998 x0 = 0.9144 c1 = 0 c0 = 0 units = km normamps = 229 
New line.linha_MCLD205_2669 bus1 = 1955 bus2 = 1953 length = 0.056499999 phases = 3 r1 = 1.6118 x1 = 0.4853 r0 = 2.3877 x0 = 1.9433001 c1 = 0 c0 = 0 units = km normamps = 150 
New line.linha_MCLD205_2670 bus1 = 1955 bus2 = 1951 length = 0.0233 phases = 3 r1 = 1.6117999 x1 = 0.48530003 r0 = 2.3877 x0 = 1.9433 c1 = 0 c0 = 0 units = km normamps = 150 
New line.linha_MCLD205_2675 bus1 = 1961 bus2 = 1958 length = 0.121 phases = 3 r1 = 1.6118 x1 = 0.51029995 r0 = 1.8754 x0 = 0.96700003 c1 = 0 c0 = 0 units = km normamps = 150 
New line.linha_MCLD205_2681 bus1 = 1958 bus2 = 1957 length = 0.13429999 phases = 3 r1 = 1.6118 x1 = 0.51029998 r0 = 1.8753998 x0 = 0.967 c1 = 0 c0 = 0 units = km normamps = 150 
New line.linha_MCLD205_2682 bus1 = 227 bus2 = 1998 length = 0.030099999 phases = 3 r1 = 1.0145001 x1 = 0.46790001 r0 = 1.7625 x0 = 1.8902 c1 = 0 c0 = 0 units = km normamps = 201 
New line.linha_MCLD205_2688 bus1 = 1998 bus2 = 1997 length = 0.1304 phases = 3 r1 = 1.0145001 x1 = 0.4679 r0 = 1.7625001 x0 = 1.8902001 c1 = 0 c0 = 0 units = km normamps = 201 
New line.linha_MCLD205_2680 bus1 = 1965 bus2 = 1964 length = 0.0273 phases = 3 r1 = 0.31839997 x1 = 0.42370002 r0 = 0.83780005 x0 = 1.4285999 c1 = 0 c0 = 0 units = km normamps = 425 
New line.linha_MCLD205_2687 bus1 = 1964 bus2 = 1963 length = 0.029999999 phases = 3 r1 = 0.3184 x1 = 0.42370001 r0 = 0.83780006 x0 = 1.4286 c1 = 0 c0 = 0 units = km normamps = 425 
New line.linha_MCLD205_2678 bus1 = 1921 bus2 = 1920 length = 0.062399998 phases = 3 r1 = 1.6117999 x1 = 0.48529999 r0 = 2.3877001 x0 = 1.9433001 c1 = 0 c0 = 0 units = km normamps = 150 
New line.linha_MCLD205_2685 bus1 = 1967 bus2 = 1792 length = 0.1498 phases = 3 r1 = 1.0144999 x1 = 0.46789996 r0 = 1.7625 x0 = 1.8902 c1 = 0 c0 = 0 units = km normamps = 201 
New line.linha_MCLD205_2690 bus1 = 1792 bus2 = 1791 length = 0.0251 phases = 3 r1 = 1.0145 x1 = 0.46790003 r0 = 1.7625 x0 = 1.8902 c1 = 0 c0 = 0 units = km normamps = 201 
New line.linha_MCLD205_2683 bus1 = 1919 bus2 = 1918 length = 0.3707 phases = 3 r1 = 1.6117999 x1 = 0.48529998 r0 = 2.3877002 x0 = 1.9433 c1 = 0 c0 = 0 units = km normamps = 150 
New line.linha_MCLD205_2684 bus1 = 1919 bus2 = 1916 length = 0.092100002 phases = 3 r1 = 1.6118 x1 = 0.48529999 r0 = 2.3877 x0 = 1.9433001 c1 = 0 c0 = 0 units = km normamps = 150 
New line.linha_MCLD205_2693 bus1 = 1997 bus2 = 1995 length = 0.041299999 phases = 3 r1 = 1.0145001 x1 = 0.4679 r0 = 1.7625 x0 = 1.8902002 c1 = 0 c0 = 0 units = km normamps = 201 
New line.linha_MCLD205_2691 bus1 = 1965 bus2 = 1924 length = 0.087099999 phases = 3 r1 = 1.1777117 x1 = 0.47265453 r0 = 1.9333354 x0 = 1.9047095 c1 = 0 c0 = 0 units = km normamps = 187.06429 
New line.linha_MCLD205_2699 bus1 = 1997 bus2 = 1994 length = 0.126 phases = 3 r1 = 0.79398337 x1 = 0.3371611 r0 = 2.1277833 x0 = 1.1080111 c1 = 0 c0 = 0 units = km normamps = 223.44444 
New line.linha_MCLD205_2697 bus1 = 1791 bus2 = 1790 length = 0.062799998 phases = 3 r1 = 1.0145001 x1 = 0.4679 r0 = 1.7625 x0 = 1.8902 c1 = 0 c0 = 0 units = km normamps = 201 
New line.linha_MCLD205_2701 bus1 = 1790 bus2 = 1789 length = 0.093199998 phases = 3 r1 = 1.0145 x1 = 0.46789999 r0 = 1.7625001 x0 = 1.8902001 c1 = 0 c0 = 0 units = km normamps = 201 
New line.linha_MCLD205_2706 bus1 = 218 bus2 = 216 length = 0.0275 phases = 3 r1 = 0.20059999 x1 = 0.40259997 r0 = 0.72 x0 = 1.4069999 c1 = 0 c0 = 0 units = km normamps = 576 
New line.linha_MCLD205_2712 bus1 = 216 bus2 = 215 length = 0.084399998 phases = 3 r1 = 0.2006 x1 = 0.40259998 r0 = 0.71999999 x0 = 1.407 c1 = 0 c0 = 0 units = km normamps = 576 
New line.linha_MCLD205_2708 bus1 = 220 bus2 = 1765 length = 0.028999999 phases = 3 r1 = 1.6117999 x1 = 0.48530001 r0 = 2.3876999 x0 = 1.9433001 c1 = 0 c0 = 0 units = km normamps = 150 
New line.linha_MCLD205_2713 bus1 = 1765 bus2 = 1764 length = 0.1331 phases = 3 r1 = 1.6117999 x1 = 0.48530003 r0 = 2.3876999 x0 = 1.9433 c1 = 0 c0 = 0 units = km normamps = 150 
New line.linha_MCLD205_2710 bus1 = 1789 bus2 = 1787 length = 0.094000001 phases = 3 r1 = 0.91616643 x1 = 0.40960042 r0 = 1.9253885 x0 = 1.5414034 c1 = 0 c0 = 0 units = km normamps = 211.00851 
New line.linha_MCLD205_2711 bus1 = 2007 bus2 = 2006 length = 0.021 phases = 3 r1 = 1.0145 x1 = 0.46790002 r0 = 1.7625 x0 = 1.8902 c1 = 0 c0 = 0 units = km normamps = 201 
New line.linha_MCLD205_2709 bus1 = 1950 bus2 = 1947 length = 0.062700003 phases = 3 r1 = 1.0145 x1 = 0.46789999 r0 = 1.7625001 x0 = 1.8902001 c1 = 0 c0 = 0 units = km normamps = 201 
New line.linha_MCLD205_2714 bus1 = 1947 bus2 = 1946 length = 0.093599997 phases = 3 r1 = 1.0145001 x1 = 0.46790002 r0 = 1.7625 x0 = 1.8902001 c1 = 0 c0 = 0 units = km normamps = 201 
New line.linha_MCLD205_2719 bus1 = 215 bus2 = 214 length = 0.087399997 phases = 3 r1 = 0.20060001 x1 = 0.4026 r0 = 0.72000003 x0 = 1.4069999 c1 = 0 c0 = 0 units = km normamps = 576 
New line.linha_MCLD205_2726 bus1 = 214 bus2 = 213 length = 0.060800001 phases = 3 r1 = 0.2006 x1 = 0.40259998 r0 = 0.72000002 x0 = 1.407 c1 = 0 c0 = 0 units = km normamps = 576 
New line.linha_MCLD205_2716 bus1 = 1944 bus2 = 1939 length = 0.035 phases = 3 r1 = 1.0145 x1 = 0.4679 r0 = 1.7625 x0 = 1.8902 c1 = 0 c0 = 0 units = km normamps = 201 
New line.linha_MCLD205_2721 bus1 = 1939 bus2 = 1937 length = 0.13510001 phases = 3 r1 = 1.0145001 x1 = 0.46790002 r0 = 1.7625001 x0 = 1.8902 c1 = 0 c0 = 0 units = km normamps = 201 
New line.linha_MCLD205_2725 bus1 = 215 bus2 = 2009 length = 0.060400002 phases = 3 r1 = 1.6118 x1 = 0.4853 r0 = 2.3877 x0 = 1.9432999 c1 = 0 c0 = 0 units = km normamps = 150 
New line.linha_MCLD205_2727 bus1 = 1937 bus2 = 1936 length = 0.042199999 phases = 3 r1 = 1.0145 x1 = 0.46790001 r0 = 1.7625001 x0 = 1.8901999 c1 = 0 c0 = 0 units = km normamps = 201 
New line.linha_MCLD205_2728 bus1 = 1937 bus2 = 1935 length = 0.064000003 phases = 3 r1 = 1.0145 x1 = 0.4679 r0 = 1.7625001 x0 = 1.8902001 c1 = 0 c0 = 0 units = km normamps = 201 
New line.linha_MCLD205_2730 bus1 = 1941 bus2 = 1929 length = 0.0746 phases = 3 r1 = 0.99462935 x1 = 0.39131891 r0 = 2.0205624 x0 = 1.5398098 c1 = 0 c0 = 0 units = km normamps = 179.92091 
New line.linha_MCLD205_2735 bus1 = 206 bus2 = 204 length = 0.029999999 phases = 3 r1 = 0.3184 x1 = 0.42370001 r0 = 0.83780006 x0 = 1.4286 c1 = 0 c0 = 0 units = km normamps = 425 
New line.linha_MCLD205_2739 bus1 = 204 bus2 = 203 length = 0.0309 phases = 3 r1 = 0.31839998 x1 = 0.4237 r0 = 0.83780001 x0 = 1.4285999 c1 = 0 c0 = 0 units = km normamps = 425 
New line.linha_MCLD205_2733 bus1 = 207 bus2 = 2012 length = 0.070500001 phases = 3 r1 = 1.6118 x1 = 0.4853 r0 = 2.3877001 x0 = 1.9432999 c1 = 0 c0 = 0 units = km normamps = 150 
New line.linha_MCLD205_2736 bus1 = 2012 bus2 = 2011 length = 0.1425 phases = 3 r1 = 1.6117999 x1 = 0.48530004 r0 = 2.3877 x0 = 1.9433001 c1 = 0 c0 = 0 units = km normamps = 150 
New line.linha_MCLD205_2743 bus1 = 203 bus2 = 202 length = 0.1119 phases = 3 r1 = 0.31839999 x1 = 0.42370001 r0 = 0.83780001 x0 = 1.4286 c1 = 0 c0 = 0 units = km normamps = 425 
New line.linha_MCLD205_2742 bus1 = 205 bus2 = 2181 length = 0.099100001 phases = 3 r1 = 1.6117999 x1 = 0.48529999 r0 = 2.3877001 x0 = 1.9432999 c1 = 0 c0 = 0 units = km normamps = 150 
New line.linha_MCLD205_2745 bus1 = 2181 bus2 = 2180 length = 0.098099999 phases = 3 r1 = 1.6118001 x1 = 0.48529997 r0 = 2.3877001 x0 = 1.9432999 c1 = 0 c0 = 0 units = km normamps = 150 
New line.linha_MCLD205_2741 bus1 = 2024 bus2 = 2022 length = 0.029100001 phases = 3 r1 = 0.73940002 x1 = 0.3048 r0 = 2.2181999 x0 = 0.91439999 c1 = 0 c0 = 0 units = km normamps = 229 
New line.linha_MCLD205_2746 bus1 = 201 bus2 = 197 length = 0.034699999 phases = 3 r1 = 0.31839999 x1 = 0.42370001 r0 = 0.83780003 x0 = 1.4286 c1 = 0 c0 = 0 units = km normamps = 425 
New line.linha_MCLD205_2752 bus1 = 197 bus2 = 196 length = 0.14380001 phases = 3 r1 = 0.3184 x1 = 0.4237 r0 = 0.83780002 x0 = 1.4285999 c1 = 0 c0 = 0 units = km normamps = 425 
New line.linha_MCLD205_2759 bus1 = 196 bus2 = 195 length = 0.0283 phases = 3 r1 = 0.31840001 x1 = 0.4237 r0 = 0.8378 x0 = 1.4286 c1 = 0 c0 = 0 units = km normamps = 425 
New line.linha_MCLD205_2751 bus1 = 2180 bus2 = 2178 length = 0.075199999 phases = 3 r1 = 1.6117999 x1 = 0.48530001 r0 = 2.3877001 x0 = 1.9433001 c1 = 0 c0 = 0 units = km normamps = 150 
New line.linha_MCLD205_2758 bus1 = 2178 bus2 = NA_4102 length = 0.099699996 phases = 3 r1 = 1.6117999 x1 = 0.48530002 r0 = 2.3877001 x0 = 1.9432999 c1 = 0 c0 = 0 units = km normamps = 150 
New line.linha_MCLD205_2757 bus1 = 2180 bus2 = 2175 length = 0.1196 phases = 3 r1 = 1.0049219 x1 = 0.22458369 r0 = 2.4478653 x0 = 0.78663554 c1 = 0 c0 = 0 units = km normamps = 169.20987 
New line.linha_MCLD205_2761 bus1 = 2019 bus2 = 2016 length = 0.0108 phases = 3 r1 = 0.7394 x1 = 0.30480001 r0 = 2.2181999 x0 = 0.91439995 c1 = 0 c0 = 0 units = km normamps = 229 
New line.linha_MCLD205_2766 bus1 = 2172 bus2 = 2165 length = 0.064599998 phases = 3 r1 = 0.73940001 x1 = 0.30480001 r0 = 2.2182 x0 = 0.91439999 c1 = 0 c0 = 0 units = km normamps = 229 
New line.linha_MCLD205_2769 bus1 = 2165 bus2 = 2163 length = 0.0251 phases = 3 r1 = 0.73940009 x1 = 0.30479999 r0 = 2.2181998 x0 = 0.91439993 c1 = 0 c0 = 0 units = km normamps = 229 
New line.linha_MCLD205_2768 bus1 = 2045 bus2 = 1841 length = 0.067699999 phases = 3 r1 = 0.3184 x1 = 0.42370001 r0 = 0.83780003 x0 = 1.4286 c1 = 0 c0 = 0 units = km normamps = 425 
New line.linha_MCLD205_2773 bus1 = 1841 bus2 = 2044 length = 0.1034 phases = 3 r1 = 0.31839998 x1 = 0.4237 r0 = 0.8378 x0 = 1.4286 c1 = 0 c0 = 0 units = km normamps = 425 
New line.linha_MCLD205_2771 bus1 = 194 bus2 = 192 length = 0.098999999 phases = 3 r1 = 0.3184 x1 = 0.42369999 r0 = 0.83780005 x0 = 1.4286 c1 = 0 c0 = 0 units = km normamps = 425 
New line.linha_MCLD205_2778 bus1 = 192 bus2 = 191 length = 0.0283 phases = 3 r1 = 0.31840001 x1 = 0.4237 r0 = 0.8378 x0 = 1.4286 c1 = 0 c0 = 0 units = km normamps = 425 
New line.linha_MCLD205_2775 bus1 = 2163 bus2 = 2161 length = 0.0898 phases = 3 r1 = 1.0145 x1 = 0.46790005 r0 = 1.2780999 x0 = 0.94950003 c1 = 0 c0 = 0 units = km normamps = 201 
New line.linha_MCLD205_2776 bus1 = 2163 bus2 = 2162 length = 0.1477 phases = 3 r1 = 0.73940002 x1 = 0.3048 r0 = 2.2182 x0 = 0.91439995 c1 = 0 c0 = 0 units = km normamps = 229 
New line.linha_MCLD205_2777 bus1 = 2173 bus2 = 2167 length = 0.0197 phases = 3 r1 = 0.86802948 x1 = 0.15631472 r0 = 2.6040881 x0 = 0.46894416 c1 = 0 c0 = 0 units = km normamps = 116 
New line.linha_MCLD205_2781 bus1 = 2154 bus2 = 2153 length = 0.094300002 phases = 3 r1 = 0.31839999 x1 = 0.42370003 r0 = 0.83779999 x0 = 1.4285999 c1 = 0 c0 = 0 units = km normamps = 425 
New line.linha_MCLD205_2785 bus1 = 2153 bus2 = 2150 length = 0.34279999 phases = 3 r1 = 0.3184 x1 = 0.42370002 r0 = 0.83780002 x0 = 1.4286 c1 = 0 c0 = 0 units = km normamps = 425 
New line.linha_MCLD205_2779 bus1 = 2045 bus2 = 2029 length = 0.0395 phases = 3 r1 = 1.313906 x1 = 0.47662202 r0 = 2.0758914 x0 = 1.9168172 c1 = 0 c0 = 0 units = km normamps = 175.43544 
New line.linha_MCLD205_2782 bus1 = 191 bus2 = 190 length = 0.1815 phases = 3 r1 = 0.31840001 x1 = 0.42370003 r0 = 0.8378 x0 = 1.4286 c1 = 0 c0 = 0 units = km normamps = 425 
New line.linha_MCLD205_2787 bus1 = 190 bus2 = 189 length = 0.035999998 phases = 3 r1 = 0.3184 x1 = 0.42370001 r0 = 0.83780006 x0 = 1.4286 c1 = 0 c0 = 0 units = km normamps = 425 
New line.linha_MCLD205_2792 bus1 = 2150 bus2 = 2147 length = 0.13349999 phases = 3 r1 = 0.3184 x1 = 0.4237 r0 = 0.83780003 x0 = 1.4285999 c1 = 0 c0 = 0 units = km normamps = 425 
New line.linha_MCLD205_2790 bus1 = 2043 bus2 = 2040 length = 0.083099999 phases = 3 r1 = 0.31839998 x1 = 0.42369999 r0 = 0.83780004 x0 = 1.4286 c1 = 0 c0 = 0 units = km normamps = 425 
New line.linha_MCLD205_2798 bus1 = 2040 bus2 = 2039 length = 0.13770001 phases = 3 r1 = 0.31840001 x1 = 0.42370001 r0 = 0.8378 x0 = 1.4285999 c1 = 0 c0 = 0 units = km normamps = 425 
New line.linha_MCLD205_2793 bus1 = 2187 bus2 = 2185 length = 0.16339999 phases = 3 r1 = 1.6117999 x1 = 0.4853 r0 = 2.3877001 x0 = 1.9433 c1 = 0 c0 = 0 units = km normamps = 150 
New line.linha_MCLD205_2794 bus1 = 2187 bus2 = 2184 length = 0.030200001 phases = 3 r1 = 1.6118 x1 = 0.4853 r0 = 2.3877 x0 = 1.9432999 c1 = 0 c0 = 0 units = km normamps = 150 
New line.linha_MCLD205_2795 bus1 = 2187 bus2 = 2186 length = 0.092100002 phases = 3 r1 = 1.6118 x1 = 0.48529999 r0 = 2.3877 x0 = 1.9433001 c1 = 0 c0 = 0 units = km normamps = 150 
New line.linha_MCLD205_2799 bus1 = 2110 bus2 = 2062 length = 0.094700001 phases = 3 r1 = 0.7394 x1 = 0.30480001 r0 = 2.2182001 x0 = 0.91439998 c1 = 0 c0 = 0 units = km normamps = 229 
New line.linha_MCLD205_2807 bus1 = 2062 bus2 = 2061 length = 0.0451 phases = 3 r1 = 0.7394 x1 = 0.30480001 r0 = 2.2181999 x0 = 0.91440002 c1 = 0 c0 = 0 units = km normamps = 229 
New line.linha_MCLD205_2808 bus1 = 2109 bus2 = 2099 length = 0.0584 phases = 3 r1 = 0.56243905 x1 = 0.28912962 r0 = 1.6268079 x0 = 0.94856608 c1 = 0 c0 = 0 units = km normamps = 303.85274 
New line.linha_MCLD205_2810 bus1 = 2107 bus2 = 2105 length = 0.037999999 phases = 3 r1 = 1.0145 x1 = 0.4679 r0 = 1.7625 x0 = 1.8902 c1 = 0 c0 = 0 units = km normamps = 201 
New line.linha_MCLD205_2803 bus1 = 1835 bus2 = 1832 length = 0.1625 phases = 3 r1 = 0.73940004 x1 = 0.3048 r0 = 2.2181999 x0 = 0.91439996 c1 = 0 c0 = 0 units = km normamps = 229 
New line.linha_MCLD205_2812 bus1 = 2194 bus2 = 2191 length = 0.096000001 phases = 3 r1 = 1.6118 x1 = 0.48529999 r0 = 2.3877001 x0 = 1.9433001 c1 = 0 c0 = 0 units = km normamps = 150 
New line.linha_MCLD205_2821 bus1 = 2191 bus2 = 2190 length = 0.155 phases = 3 r1 = 1.6118 x1 = 0.4853 r0 = 2.3877001 x0 = 1.9432999 c1 = 0 c0 = 0 units = km normamps = 150 
New line.linha_MCLD205_2813 bus1 = 2194 bus2 = 2192 length = 0.035100002 phases = 3 r1 = 1.6118 x1 = 0.4853 r0 = 2.3877002 x0 = 1.9433 c1 = 0 c0 = 0 units = km normamps = 150 
New line.linha_MCLD205_2818 bus1 = 2106 bus2 = 2102 length = 0.037999999 phases = 3 r1 = 1.6118 x1 = 0.48530001 r0 = 2.3877 x0 = 1.9433002 c1 = 0 c0 = 0 units = km normamps = 150 
New line.linha_MCLD205_2815 bus1 = 1844 bus2 = 1837 length = 0.2448 phases = 3 r1 = 0.73940001 x1 = 0.30480002 r0 = 2.2182 x0 = 0.91439995 c1 = 0 c0 = 0 units = km normamps = 229 
New line.linha_MCLD205_2822 bus1 = 184 bus2 = 183 length = 0.030099999 phases = 3 r1 = 0.3184 x1 = 0.42370001 r0 = 0.83780007 x0 = 1.4286 c1 = 0 c0 = 0 units = km normamps = 425 
New line.linha_MCLD205_2828 bus1 = 183 bus2 = 182 length = 0.0241 phases = 3 r1 = 0.3184 x1 = 0.42369997 r0 = 0.8378 x0 = 1.4286 c1 = 0 c0 = 0 units = km normamps = 425 
New line.linha_MCLD205_2825 bus1 = 2059 bus2 = 2058 length = 0.2339 phases = 3 r1 = 0.73940003 x1 = 0.3048 r0 = 2.2182001 x0 = 0.91440002 c1 = 0 c0 = 0 units = km normamps = 229 
New line.linha_MCLD205_2823 bus1 = 2036 bus2 = 2033 length = 0.033 phases = 3 r1 = 1.0145001 x1 = 0.46790002 r0 = 1.7625001 x0 = 1.8902 c1 = 0 c0 = 0 units = km normamps = 201 
New line.linha_MCLD205_2829 bus1 = 2033 bus2 = 2032 length = 0.1781 phases = 3 r1 = 1.0145001 x1 = 0.46790002 r0 = 1.7625 x0 = 1.8902 c1 = 0 c0 = 0 units = km normamps = 201 
New line.linha_MCLD205_2834 bus1 = 2142 bus2 = 2140 length = 0.096299998 phases = 3 r1 = 0.31839997 x1 = 0.42370004 r0 = 0.83780003 x0 = 1.4285998 c1 = 0 c0 = 0 units = km normamps = 425 
New line.linha_MCLD205_2840 bus1 = 2140 bus2 = 2139 length = 0.068800002 phases = 3 r1 = 0.31839998 x1 = 0.4237 r0 = 0.83780002 x0 = 1.4285999 c1 = 0 c0 = 0 units = km normamps = 425 
New line.linha_MCLD205_2832 bus1 = 2103 bus2 = 2081 length = 0.033 phases = 3 r1 = 1.6118 x1 = 0.4853 r0 = 2.3877 x0 = 1.9433 c1 = 0 c0 = 0 units = km normamps = 150 
New line.linha_MCLD205_2837 bus1 = 2081 bus2 = 2080 length = 0.1211 phases = 3 r1 = 1.6117999 x1 = 0.4853 r0 = 2.3877001 x0 = 1.9433 c1 = 0 c0 = 0 units = km normamps = 150 
New line.linha_MCLD205_2830 bus1 = 2061 bus2 = 2046 length = 0.1711 phases = 3 r1 = 0.99842167 x1 = 0.45836757 r0 = 1.7891336 x0 = 1.8331691 c1 = 0 c0 = 0 units = km normamps = 202.63647 
New line.linha_MCLD205_2851 bus1 = 2139 bus2 = 2136 length = 0.1708 phases = 3 r1 = 0.31839999 x1 = 0.42369999 r0 = 0.83779997 x0 = 1.4286 c1 = 0 c0 = 0 units = km normamps = 425 
New line.linha_MCLD205_2836 bus1 = 2059 bus2 = 2055 length = 0.1798 phases = 3 r1 = 0.97273012 x1 = 0.44313565 r0 = 1.8316914 x0 = 1.742039 c1 = 0 c0 = 0 units = km normamps = 205.25139 
New line.linha_MCLD205_2846 bus1 = 2055 bus2 = 2054 length = 0.0232 phases = 3 r1 = 1.0145 x1 = 0.46790001 r0 = 1.7625 x0 = 1.8902 c1 = 0 c0 = 0 units = km normamps = 201 
New line.linha_MCLD205_2842 bus1 = 2205 bus2 = 2203 length = 0.1742 phases = 3 r1 = 1.6118 x1 = 0.48529998 r0 = 2.3877002 x0 = 1.9432999 c1 = 0 c0 = 0 units = km normamps = 150 
New line.linha_MCLD205_2852 bus1 = 2203 bus2 = 2198 length = 0.1584 phases = 3 r1 = 1.6118 x1 = 0.48529999 r0 = 2.3877 x0 = 1.9433 c1 = 0 c0 = 0 units = km normamps = 150 
New line.linha_MCLD205_2843 bus1 = 2205 bus2 = 2202 length = 0.041099999 phases = 3 r1 = 1.6117998 x1 = 0.4853 r0 = 2.3877001 x0 = 1.9433 c1 = 0 c0 = 0 units = km normamps = 150 
New line.linha_MCLD205_2841 bus1 = 2206 bus2 = 2196 length = 0.020199999 phases = 3 r1 = 1.6118001 x1 = 0.4853 r0 = 2.3877 x0 = 1.9432999 c1 = 0 c0 = 0 units = km normamps = 150 