new loadshape.curva_carga_5795 npts=24, interval=1 mult=(0.5420951,0.46840292,0.42393408,0.4170324,0.41622773,0.43290296,0.47841537,0.49172418,0.56663473,0.64179916,0.69667105,0.70256977,0.71888522,0.71800778,0.69713062,0.70613099,0.70748235,0.71857107,0.87090817,1,0.9073906,0.83221207,0.73011757,0.64154899)
new loadshape.curva_carga_5796 npts=24, interval=1 mult=(0.57292106,0.50474002,0.46208874,0.46030046,0.46218222,0.4841868,0.53947181,0.55751929,0.63101838,0.70464331,0.76328507,0.76566747,0.77904199,0.78530574,0.76430333,0.773392,0.77141417,0.76557577,0.88495666,1,0.92276136,0.86498963,0.75290074,0.6654068)
new loadshape.curva_carga_5797 npts=24, interval=1 mult=(0.51368419,0.43856035,0.39398242,0.38251894,0.37932186,0.39019598,0.42540841,0.41185551,0.48919374,0.57076557,0.62407867,0.63432941,0.6518876,0.64370854,0.62409448,0.63371881,0.63840407,0.66113344,0.86504165,1,0.88903006,0.8012327,0.70836932,0.61795675)
new loadshape.curva_carga_5626 npts=24, interval=1 mult=(1,1,1,1,1,1,1,0,0,0,0,0,0,0,0,0,0,0,1,1,1,1,1,1)
new loadshape.curva_carga_5745 npts=24, interval=1 mult=(0.49910554,0.37075134,0.30769229,0.28264758,0.27101967,0.27370303,0.29025044,0.2996422,0.35465116,0.36940963,0.38953486,0.39534884,0.44499103,0.42262967,0.38550985,0.38774598,0.39803218,0.45930233,0.72048295,1,0.89803218,0.80590339,0.72361354,0.6283542)
new loadshape.curva_carga_5730 npts=24, interval=1 mult=(1,1,1,1,1,1,1,0,0,0,0,0,0,0,0,0,0,0,1,1,1,1,1,1)
new loadshape.curva_carga_5715 npts=24, interval=1 mult=(0.47934351,0.34238823,0.27730617,0.25183927,0.23882286,0.24278438,0.26032825,0.30673457,0.35936615,0.36955291,0.38709677,0.39162423,0.44708543,0.42161856,0.37917373,0.38313525,0.39558575,0.46010187,0.70062254,1,0.89643461,0.80135822,0.71533675,0.61629879)
new loadshape.curva_carga_5744 npts=24, interval=1 mult=(0.50934331,0.38814736,0.32995196,0.30752804,0.2984517,0.30432462,0.3219434,0.30005339,0.36198612,0.38707955,0.40843567,0.41591032,0.45328351,0.43192738,0.39935933,0.40523226,0.41484251,0.47090231,0.74532837,1,0.89588897,0.8051255,0.72610787,0.63374265)
new loadshape.curva_carga_5600 npts=24, interval=1 mult=(0.52754823,0.41184573,0.35674931,0.33471077,0.32369146,0.32644627,0.34159781,0.27134988,0.32093665,0.34022038,0.36088154,0.36639119,0.41184573,0.38980716,0.3539945,0.35812673,0.37052342,0.42561984,0.74931131,1,0.90082646,0.81404958,0.73691464,0.64876034)
new loadshape.curva_carga_5658 npts=24, interval=1 mult=(0.46451614,0.36845879,0.31756275,0.29605734,0.28745519,0.28960575,0.3075269,0.28817204,0.3605735,0.42795699,0.46810036,0.48172044,0.51326167,0.49103944,0.46523299,0.47383514,0.48530466,0.53476704,0.80573478,1,0.86810035,0.76344085,0.68315417,0.58781364)
new loadshape.curva_carga_5597 npts=24, interval=1 mult=(0.53943521,0.42064261,0.36514116,0.34274585,0.33106133,0.33495616,0.35053552,0.26777019,0.31548197,0.32716649,0.34469326,0.34858811,0.39629987,0.37390455,0.33690359,0.34177213,0.35248295,0.4089581,0.74294056,1,0.90652378,0.82278474,0.74683543,0.66017523)
new loadshape.curva_carga_5625 npts=24, interval=1 mult=(0.54016909,0.41860462,0.36152218,0.33932346,0.32769556,0.33086681,0.34672304,0.27061309,0.31818182,0.32663847,0.3424947,0.34672304,0.39534883,0.3731501,0.33615221,0.33932346,0.34989429,0.40697673,0.73572935,1,0.90803377,0.82452426,0.74841434,0.66067652)
new loadshape.curva_carga_5627 npts=24, interval=1 mult=(0.50818776,0.38264192,0.32205242,0.29748909,0.2860262,0.2893013,0.30513102,0.29039302,0.34334061,0.35807861,0.37718341,0.38264192,0.43176857,0.40884281,0.3717249,0.37500001,0.38537119,0.44541484,0.72652841,1,0.89956337,0.80949781,0.72925766,0.63591702)
new loadshape.curva_carga_5503 npts=24, interval=1 mult=(0.50238097,0.37976193,0.32023811,0.29761905,0.28571431,0.28928574,0.30595239,0.28690477,0.34047619,0.3607143,0.38095238,0.38690478,0.43571429,0.41190478,0.37500001,0.37976193,0.39166667,0.45000001,0.73571432,1,0.89642861,0.80357148,0.72261909,0.6297619)
new loadshape.curva_carga_5572 npts=24, interval=1 mult=(0.51346155,0.38653845,0.32692308,0.30384616,0.2923077,0.29615384,0.31153846,0.28461538,0.33269231,0.3423077,0.35961539,0.36346153,0.4153846,0.39038463,0.35192307,0.35576923,0.36730769,0.42692306,0.72307692,1,0.90192305,0.81346155,0.73461538,0.6423077)
new loadshape.curva_carga_5614 npts=24, interval=1 mult=(0.52200826,0.39683633,0.33700138,0.3136176,0.30192572,0.3053645,0.32118296,0.28266851,0.33149931,0.34181569,0.35900964,0.36382392,0.41334252,0.39064649,0.35281981,0.35557083,0.36726274,0.42572216,0.72696011,1,0.90440166,0.81705641,0.73796426,0.64718023)
new loadshape.curva_carga_5716 npts=24, interval=1 mult=(0.48208759,0.35692175,0.29721363,0.27288811,0.2609465,0.26448474,0.28173376,0.29632906,0.35249889,0.37638214,0.39982309,0.40645732,0.45555066,0.43078284,0.39274657,0.39805395,0.41043786,0.47014598,0.73109244,1,0.89031401,0.79433884,0.71074751,0.6138877)
new loadshape.curva_carga_5685 npts=24, interval=1 mult=(0.44773177,0.30177515,0.23274162,0.20512821,0.19230769,0.19625247,0.21499015,0.32445759,0.37869822,0.38856018,0.40631166,0.41124262,0.47041421,0.44280081,0.3974359,0.40236685,0.41617357,0.48422092,0.68047337,1,0.89053258,0.78994083,0.69921105,0.59368839)
new loadshape.curva_carga_5686 npts=24, interval=1 mult=(0.58099888,0.57000203,0.54900379,0.57399949,0.5890016,0.63099808,0.7250004,0.7740042,0.82999952,0.90200028,0.97799843,0.96500285,0.9570002,1,0.98700442,0.99499927,0.97700303,0.89100349,0.80300509,0.78500098,0.7910051,0.81400201,0.67699987,0.61500843)
new loadshape.curva_carga_5628 npts=24, interval=1 mult=(0.47642993,0.35260842,0.29258328,0.26807041,0.25644249,0.25958516,0.27686989,0.29918291,0.35763672,0.384978,0.40980515,0.41734758,0.46511629,0.44091768,0.40383406,0.40917664,0.42143308,0.48082968,0.73412953,1,0.88780642,0.7903834,0.70615964,0.60873668)
new loadshape.curva_carga_5631 npts=24, interval=1 mult=(0.44722633,0.30142368,0.23269514,0.20569465,0.19194895,0.19636722,0.21453119,0.3240059,0.37898873,0.38782523,0.40648012,0.41089839,0.4702995,0.44280806,0.39715268,0.40157095,0.41531667,0.48404517,0.68041242,1,0.89052529,0.78988713,0.69857636,0.59351992)
new loadshape.curva_carga_5573 npts=24, interval=1 mult=(0.5,0.37325903,0.31337045,0.28969359,0.27715877,0.28133704,0.29805013,0.28969359,0.34122562,0.35654594,0.37604457,0.38161558,0.43245123,0.40807798,0.36908076,0.37325903,0.38579385,0.44568243,0.72493032,1,0.89763228,0.80571029,0.72423397,0.63022286)
new loadshape.curva_carga_5601 npts=24, interval=1 mult=(0.49647887,0.37173037,0.31187123,0.28772634,0.27615693,0.27967806,0.29627767,0.29175049,0.34557344,0.36519113,0.38682091,0.39285713,0.44164988,0.41800806,0.38028167,0.38480885,0.39637828,0.4557344,0.73038226,1,0.89537219,0.80231386,0.72032192,0.6257545)
new loadshape.curva_carga_5547 npts=24, interval=1 mult=(0.5308964,0.40644038,0.34812881,0.3246301,0.31331591,0.3167972,0.332463,0.27589206,0.32201914,0.32985203,0.34551783,0.3489991,0.39947779,0.37684941,0.33768493,0.34116622,0.35335074,0.41166231,0.7284595,1,0.90687553,0.82158397,0.74412533,0.65448213)
new loadshape.curva_carga_5659 npts=24, interval=1 mult=(0.5216831,0.40403607,0.3482181,0.32546156,0.31429796,0.31773292,0.33361957,0.27479603,0.32589093,0.34521251,0.36582221,0.37140403,0.41820521,0.39501932,0.35938169,0.36410477,0.37569771,0.43151564,0.74624296,1,0.899957,0.81150704,0.73379131,0.6444826)
new loadshape.curva_carga_5632 npts=24, interval=1 mult=(0.45526237,0.3363664,0.27722171,0.25326053,0.24203822,0.24537457,0.26357293,0.30664241,0.3721565,0.41431604,0.44525326,0.45495904,0.49833181,0.47406731,0.44009706,0.44646649,0.45890204,0.51683346,0.74977252,1,0.87746433,0.77434029,0.68880798,0.58902031)
new loadshape.curva_carga_5579 npts=24, interval=1 mult=(0.50064103,0.36858975,0.30641027,0.28205129,0.26923077,0.27371795,0.28974359,0.29294872,0.34230771,0.35064105,0.36730769,0.37115385,0.42500002,0.40000001,0.35897436,0.36282051,0.37564103,0.43717948,0.71089747,1,0.90064107,0.80961539,0.72756414,0.63269234)
new loadshape.curva_carga_5606 npts=24, interval=1 mult=(0.44595021,0.33974157,0.28490387,0.26221242,0.25244248,0.25527892,0.27387329,0.30223763,0.37472423,0.4368106,0.47557516,0.48849668,0.52410966,0.50047273,0.47179325,0.4799874,0.49227859,0.54554047,0.78348567,1,0.86700285,0.75953357,0.67507092,0.5757958)
new loadshape.curva_carga_5703 npts=24, interval=1 mult=(0.46212294,0.3364034,0.27400415,0.24890628,0.2373935,0.24015657,0.25788624,0.31130554,0.37393508,0.40548009,0.43241999,0.44093944,0.48814182,0.46419527,0.42850565,0.43288049,0.44416302,0.50495048,0.73129172,1,0.88349063,0.78286902,0.69698366,0.5965922)
new loadshape.curva_carga_5636 npts=24, interval=1 mult=(0.49083219,0.36013166,0.29713213,0.27268454,0.26187119,0.26704279,0.28443818,0.30888577,0.36718383,0.38457922,0.40432537,0.40996711,0.4560414,0.43300423,0.39633289,0.40056417,0.41090741,0.47202634,0.71932301,1,0.89562768,0.80206868,0.71885284,0.62247299)
new loadshape.curva_carga_5635 npts=24, interval=1 mult=(0.47859621,0.34670265,0.28384111,0.25877361,0.24604705,0.24990358,0.267258,0.3031238,0.35788661,0.37446972,0.39452372,0.40030851,0.45275742,0.42768993,0.38758193,0.39182414,0.40455072,0.46702658,0.71345931,1,0.89317389,0.79753177,0.71230236,0.61396066)
new loadshape.curva_carga_5542 npts=24, interval=1 mult=(0.45304662,0.33763442,0.27849463,0.25412187,0.24336918,0.24551972,0.26344087,0.3078853,0.37598568,0.4229391,0.45663084,0.46774196,0.509319,0.48602152,0.45448029,0.45985666,0.47132618,0.52867385,0.75734767,1,0.87491042,0.77025093,0.68530469,0.58494623)
new loadshape.curva_carga_5599 npts=24, interval=1 mult=(0.43497606,0.35335386,0.30698152,0.29141001,0.29226557,0.3044148,0.3287132,0.34907599,0.46697467,0.58658451,0.64099931,0.66358659,0.64681724,0.63193016,0.62833676,0.64579055,0.64921286,0.68737165,0.87491445,1,0.84137575,0.72826831,0.64852842,0.55150584)
new loadshape.curva_carga_5549 npts=24, interval=1 mult=(0.46574032,0.35122184,0.29180641,0.26784859,0.25730713,0.25874461,0.27647341,0.30474365,0.37182558,0.41638714,0.44849063,0.45903212,0.50023959,0.47819835,0.44753236,0.45184473,0.46190703,0.51892669,0.75850507,1,0.8787734,0.77671294,0.69333971,0.59511258)
new loadshape.curva_carga_5544 npts=24, interval=1 mult=(0.45939452,0.33974049,0.28015377,0.25612686,0.24459394,0.24747717,0.26525709,0.30370014,0.36713117,0.40557423,0.4353676,0.44449783,0.48966841,0.46516097,0.43008166,0.43632869,0.44882268,0.50744834,0.74579526,1,0.87986539,0.77751076,0.69245554,0.59298412)
new loadshape.curva_carga_5505 npts=24, interval=1 mult=(0.42274273,0.32867398,0.27653947,0.25443898,0.24556102,0.24669437,0.26577257,0.30487346,0.38704194,0.47223272,0.52172272,0.5385342,0.56762373,0.54476766,0.52172272,0.53078959,0.54250096,0.59236873,0.81564035,1,0.85228562,0.7374386,0.65243675,0.55100115)
new loadshape.curva_carga_5638 npts=24, interval=1 mult=(0.47752421,0.34439835,0.28077456,0.2555325,0.24308437,0.24688796,0.26417704,0.30497925,0.35926695,0.37448132,0.39453664,0.39972335,0.45297372,0.42773166,0.38727522,0.3914246,0.40387276,0.46680498,0.70988935,1,0.89349927,0.79771783,0.71230982,0.61376211)
new loadshape.curva_carga_5608 npts=24, interval=1 mult=(0.47375371,0.33641465,0.27170683,0.24562561,0.23275009,0.23704193,0.25420931,0.3083526,0.36183558,0.37306043,0.39154836,0.39650048,0.4516342,0.42588314,0.38362496,0.38791679,0.40046219,0.46517001,0.70056125,1,0.89435457,0.79828328,0.71178607,0.61175305)
new loadshape.curva_carga_5536 npts=24, interval=1 mult=(0.38981097,0.31857999,0.27385893,0.25380359,0.24642692,0.24642692,0.26648224,0.30036884,0.3964961,0.52143845,0.58759799,0.61041956,0.6272476,0.60465653,0.59036422,0.60304288,0.615491,0.65767635,0.87597969,1,0.82849237,0.70262793,0.61756571,0.51475333)
new loadshape.curva_carga_5647 npts=24, interval=1 mult=(0.49446495,0.37592253,0.31826569,0.29497234,0.28436348,0.28782289,0.30488931,0.29174355,0.35032288,0.37984319,0.40452032,0.41236164,0.45571956,0.43288747,0.39852398,0.40382844,0.41512915,0.47186349,0.74792439,1,0.89045206,0.79612549,0.7151753,0.62130997)
new loadshape.curva_carga_5507 npts=24, interval=1 mult=(0.46921855,0.33233375,0.2674193,0.2416652,0.22931734,0.23372729,0.25171988,0.31381198,0.3704357,0.38525314,0.4050097,0.41047803,0.46322102,0.43799613,0.39689541,0.40148174,0.41365321,0.47786206,0.70365142,1,0.89222083,0.79502558,0.70806137,0.60751455)
new loadshape.curva_carga_5591 npts=24, interval=1 mult=(0.46218719,0.34521221,0.28726879,0.26414582,0.25435257,0.2592492,0.27774756,0.30848749,0.37731231,0.42192603,0.45266596,0.46300329,0.5008161,0.47742115,0.44559308,0.45321001,0.46436343,0.52067465,0.75761701,1,0.87785638,0.77584332,0.69178456,0.59330799)
new loadshape.curva_carga_5567 npts=24, interval=1 mult=(0.47506307,0.34174268,0.27770232,0.25228023,0.2402484,0.24451776,0.26198332,0.31088686,0.36832913,0.38579469,0.40636523,0.41238114,0.46303125,0.43857948,0.39937899,0.40364836,0.41509801,0.47816805,0.71162429,1,0.8921017,0.79565304,0.71007178,0.61090626)
new loadshape.curva_carga_5642 npts=24, interval=1 mult=(0.48505749,0.36551726,0.30640394,0.28243023,0.27126436,0.27422003,0.29096882,0.2952381,0.35467982,0.38489327,0.41116586,0.41904764,0.46469624,0.44137931,0.40656816,0.41149426,0.4226601,0.48078818,0.74449922,1,0.88834155,0.79178985,0.709688,0.61379309)
new loadshape.curva_carga_5535 npts=24, interval=1 mult=(0.4628187,0.33533993,0.27266288,0.24752124,0.23548158,0.23866855,0.25637394,0.30949009,0.37004248,0.39801698,0.42351273,0.43130309,0.48016995,0.45573652,0.41820112,0.42315863,0.43484419,0.4964589,0.72592068,1,0.88526911,0.78505663,0.69865436,0.59844188)
new loadshape.curva_carga_5556 npts=24, interval=1 mult=(0.47926969,0.34842146,0.28565995,0.26017497,0.24800304,0.2514264,0.26854319,0.30467859,0.36059337,0.3788513,0.40053252,0.40661849,0.45796883,0.43324457,0.39444658,0.3982503,0.41004185,0.47242297,0.7170027,1,0.89235455,0.79650059,0.71167747,0.6135413)
new loadshape.curva_carga_5639 npts=24, interval=1 mult=(0.47192469,0.33430705,0.26906849,0.24310289,0.23012009,0.23401493,0.2515417,0.31028887,0.36449205,0.37585198,0.39435247,0.3995456,0.45472249,0.42908146,0.38688738,0.39078222,0.40344044,0.46835444,0.69912363,1,0.89386562,0.79779291,0.71080817,0.61051607)
new loadshape.curva_carga_5723 npts=24, interval=1 mult=(0.4776574,0.34529452,0.28063643,0.2549086,0.24272173,0.24576844,0.26303317,0.3097495,0.36696004,0.38422478,0.40555179,0.41164523,0.46310087,0.43940419,0.40081244,0.40385917,0.41469193,0.47799594,0.7125931,1,0.89268787,0.79654707,0.711239,0.61238998)
new loadshape.curva_carga_5650 npts=24, interval=1 mult=(0.4703713,0.34497173,0.28399311,0.25940496,0.24735678,0.25079912,0.26825669,0.30243422,0.36119989,0.38873862,0.41381852,0.421195,0.47012541,0.44529136,0.40767151,0.41308088,0.42537498,0.4858618,0.7305139,1,0.88664868,0.78805013,0.70297515,0.60437669)
new loadshape.curva_carga_5622 npts=24, interval=1 mult=(0.49338083,0.37525456,0.31517311,0.29124234,0.28004072,0.28207738,0.29887983,0.29735235,0.35845213,0.38900202,0.41547859,0.42362524,0.46741343,0.44602848,0.41395111,0.41649693,0.42617106,0.48370669,0.74694501,1,0.89002039,0.7948065,0.71384925,0.61914461)
new loadshape.curva_carga_5709 npts=24, interval=1 mult=(0.41488888,0.33199999,0.284,0.26355554,0.25555555,0.25688887,0.27644443,0.30044442,0.38866664,0.49088885,0.54688886,0.56622221,0.58799996,0.56555555,0.54666663,0.55799999,0.56999998,0.61555552,0.84533332,1,0.84333334,0.72511109,0.64111109,0.54044444)
new loadshape.curva_carga_5701 npts=24, interval=1 mult=(0.45385497,0.32128883,0.25776753,0.23222093,0.22002301,0.22416569,0.24234751,0.31461449,0.37445339,0.39953968,0.42370537,0.43084001,0.48193324,0.45592635,0.41611045,0.4218642,0.43475259,0.49781357,0.71530492,1,0.88469502,0.78342921,0.6952819,0.59332563)
new loadshape.curva_carga_5593 npts=24, interval=1 mult=(0.44006726,0.32764832,0.27023782,0.24741773,0.23804947,0.24213309,0.26159019,0.3163584,0.39178479,0.45063655,0.48786932,0.50036031,0.53447034,0.51116983,0.48210424,0.49075188,0.50180157,0.55705019,0.77155899,1,0.86740329,0.75978857,0.67379294,0.57242374)
new loadshape.curva_carga_5712 npts=24, interval=1 mult=(0.47657032,0.34496512,0.28165506,0.25747758,0.24725824,0.25324029,0.2719342,0.31979065,0.38384847,0.4072782,0.42871389,0.43569296,0.47831509,0.45513462,0.41949152,0.42497509,0.43519443,0.49626125,0.72133602,1,0.89032901,0.79411772,0.70912264,0.61066801)
new loadshape.curva_carga_5733 npts=24, interval=1 mult=(0.48257577,0.34678029,0.28238637,0.25662879,0.24412879,0.24791666,0.26515152,0.30511362,0.35776517,0.36799243,0.38598484,0.3907197,0.44526515,0.42026517,0.3785985,0.38238638,0.39469698,0.45852274,0.70321967,1,0.89659088,0.80227274,0.71685606,0.61856061)
new loadshape.curva_carga_5528 npts=24, interval=1 mult=(0.47116647,0.33267803,0.26714724,0.2409349,0.22804719,0.23219748,0.24967235,0.31083443,0.36435126,0.37505463,0.39340323,0.39799039,0.45391003,0.42813457,0.38553956,0.38947138,0.40214066,0.46745306,0.69724774,1,0.89427702,0.7979467,0.71079077,0.61031018)
new loadshape.curva_carga_5588 npts=24, interval=1 mult=(0.47578869,0.35106382,0.28906825,0.26412325,0.25238444,0.25495231,0.2721937,0.3063096,0.36720471,0.39508436,0.42076303,0.42846664,0.47578869,0.45267791,0.41746149,0.42112986,0.43176815,0.49192957,0.73220834,1,0.88774761,0.78980193,0.70542923,0.60748347)
new loadshape.curva_carga_5568 npts=24, interval=1 mult=(0.42076759,0.341182,0.29479633,0.27431127,0.26630562,0.267012,0.28608429,0.29267718,0.37932656,0.48269367,0.53943961,0.55874735,0.58111607,0.55874735,0.54038142,0.55121261,0.56345655,0.60795855,0.85189546,1,0.84388981,0.72639511,0.64351306,0.54414881)
new loadshape.curva_carga_5676 npts=24, interval=1 mult=(1,1,1,1,1,1,1,0,0,0,0,0,0,0,0,0,0,0,1,1,1,1,1,1)
new loadshape.curva_carga_5550 npts=24, interval=1 mult=(0.51329398,0.39734124,0.34145741,0.31905466,0.30846874,0.3121615,0.32865583,0.27991139,0.33481045,0.36016742,0.38281635,0.38946333,0.43303791,0.41038897,0.37592321,0.38133925,0.39266372,0.44805517,0.75209256,1,0.8958641,0.80526838,0.72722799,0.63663222)
new loadshape.curva_carga_5531 npts=24, interval=1 mult=(0.48617176,0.38573506,0.33478894,0.31295488,0.30422126,0.30567684,0.32314408,0.27947597,0.34497814,0.40029111,0.43668122,0.44832604,0.48326053,0.46142647,0.43377002,0.43959241,0.45123727,0.50218339,0.79475983,1,0.87772921,0.7787482,0.70014552,0.6069869)
new loadshape.curva_carga_5553 npts=24, interval=1 mult=(0.46426313,0.35135991,0.2944339,0.27103098,0.2602783,0.26312461,0.28083491,0.29822896,0.36369387,0.40986718,0.4424415,0.45287793,0.49399114,0.47027199,0.43833019,0.44497153,0.456673,0.5126502,0.76344088,1,0.87760913,0.7754586,0.69196715,0.59392792)
new loadshape.curva_carga_5641 npts=24, interval=1 mult=(0.52415159,0.40178351,0.34208573,0.3185534,0.3071588,0.30988358,0.32573694,0.28362647,0.33490216,0.34827844,0.36660888,0.37181077,0.41986625,0.39806791,0.36239783,0.36462722,0.37453555,0.43299483,0.73297004,1,0.90339363,0.81595247,0.73817193,0.64751057)
new loadshape.curva_carga_5580 npts=24, interval=1 mult=(0.45356287,0.33026422,0.26981586,0.24539633,0.23418735,0.23779024,0.25620496,0.30944757,0.3734988,0.41072859,0.43955165,0.44875903,0.49399521,0.46917535,0.43314655,0.43995199,0.45236192,0.51200962,0.73939155,1,0.87910329,0.776221,0.68975183,0.58927145)
new loadshape.curva_carga_5532 npts=24, interval=1 mult=(0.42082297,0.35193268,0.30891521,0.28990026,0.28273068,0.28273068,0.30174566,0.28584791,0.37655862,0.4937656,0.55579801,0.57730675,0.59382797,0.57231923,0.5582918,0.57013719,0.58198258,0.62250626,0.87905243,1,0.83790527,0.71851627,0.63778059,0.53990026)
new loadshape.curva_carga_5692 npts=24, interval=1 mult=(0.58099887,0.57000203,0.54900373,0.57399948,0.58900159,0.63099806,0.72500038,0.77400417,0.82999948,0.90200023,0.97799837,0.9650028,0.95700014,1,0.98700443,0.99499927,0.97700298,0.89100345,0.80300507,0.78500095,0.79100507,0.81400197,0.67699985,0.61500843)
new loadshape.curva_carga_5655 npts=24, interval=1 mult=(0.46251944,0.34276827,0.28398134,0.26003111,0.2488336,0.25256611,0.27060653,0.30326594,0.3667185,0.40497668,0.43421462,0.44323483,0.48709172,0.46283047,0.42799376,0.43452565,0.44696734,0.50482115,0.74681184,1,0.88055989,0.77916016,0.69424573,0.59533435)
new loadshape.curva_carga_5667 npts=24, interval=1 mult=(0.4410179,0.33405219,0.27841277,0.2553375,0.24498598,0.24735821,0.26568902,0.30256632,0.37437999,0.43562647,0.47487598,0.4878154,0.52555531,0.50161741,0.47185683,0.47962044,0.49212853,0.54647402,0.78003016,1,0.86629285,0.75781757,0.67263318,0.57235282)
new loadshape.curva_carga_5710 npts=24, interval=1 mult=(0.2512364,0.24035609,0.22848663,0.24530168,0.29179031,0.34817013,0.38872404,0.45103855,0.69139466,0.90900094,0.96043519,1,0.78338276,0.81107813,0.89713151,0.94263108,0.90306627,0.88031648,0.70820969,0.55390699,0.41147378,0.34817013,0.32047477,0.27398614)
new loadshape.curva_carga_5708 npts=24, interval=1 mult=(0.43014863,0.33588111,0.28450105,0.26284501,0.25350318,0.25498938,0.27367303,0.29830149,0.37707005,0.45817409,0.50573248,0.52165604,0.55244161,0.52908704,0.5044586,0.51380042,0.52632697,0.5760085,0.81337577,1,0.85541405,0.74246285,0.65817409,0.55817409)
new loadshape.curva_carga_5583 npts=24, interval=1 mult=(0.47563153,0.35799948,0.29982136,0.276346,0.26511865,0.26792548,0.28527685,0.29599386,0.3569788,0.39321255,0.42153606,0.43046692,0.47486603,0.45113549,0.41668791,0.42255674,0.43429445,0.49170702,0.75070166,1,0.88389889,0.78489406,0.70196476,0.60525641)
new loadshape.curva_carga_5501 npts=24, interval=1 mult=(0.53530998,0.44797848,0.40269544,0.38490567,0.37897576,0.38328843,0.40000003,0.26522913,0.33423183,0.39299194,0.42695418,0.43881401,0.45929919,0.44097036,0.42102427,0.4296496,0.43773589,0.48032349,0.82911053,1,0.88571431,0.79568735,0.7256065,0.64258765)
new loadshape.curva_carga_5534 npts=24, interval=1 mult=(0.44846463,0.35872409,0.31087834,0.3013568,0.31444892,0.34301356,0.37514878,0.43537251,0.59723872,0.73601522,0.78600332,0.81266357,0.74268026,0.73768149,0.753392,0.78005234,0.77100683,0.80218993,0.89573905,1,0.8383718,0.7305403,0.65365385,0.55772431)
new loadshape.curva_carga_5720 npts=24, interval=1 mult=(0.48378131,0.34754402,0.28359593,0.25787768,0.24513438,0.24930492,0.26645042,0.30282671,0.35403152,0.36260428,0.3795181,0.38392031,0.43929563,0.41380907,0.37117702,0.37534756,0.38809084,0.45203891,0.70157554,1,0.89759042,0.8037535,0.71848936,0.62025023)
new loadshape.curva_carga_5728 npts=24, interval=1 mult=(0.57059207,0.46584255,0.41249185,0.3916721,0.38321406,0.3851659,0.40013011,0.26350033,0.31815224,0.34092386,0.36109303,0.36824982,0.40338322,0.38581652,0.35979181,0.36109303,0.36759923,0.41834743,0.77618737,1,0.90826285,0.82823679,0.75927129,0.67794405)
new loadshape.curva_carga_5661 npts=24, interval=1 mult=(0.48831925,0.35918234,0.29753407,0.27287476,0.2605451,0.26411419,0.28098636,0.29818298,0.35204412,0.36859181,0.38903307,0.394549,0.4458144,0.42147954,0.38221934,0.38643736,0.39844257,0.45976638,0.71966255,1,0.89487345,0.80077868,0.71739129,0.62102527)
new loadshape.curva_carga_5611 npts=24, interval=1 mult=(0.4729042,0.3444611,0.28173655,0.25658682,0.24461079,0.24775451,0.26511977,0.30643715,0.36482037,0.38817367,0.41167666,0.41871257,0.4685629,0.4443114,0.40643713,0.41062875,0.42230539,0.48398203,0.72260478,1,0.88922157,0.79131737,0.70613772,0.60718564)
new loadshape.curva_carga_5645 npts=24, interval=1 mult=(0.503096,0.3895769,0.33436533,0.31372551,0.30650156,0.31424148,0.33333333,0.30546956,0.37667701,0.41744065,0.44375648,0.45304438,0.47987618,0.45975235,0.43240453,0.4411765,0.4494324,0.50154802,0.77038184,1,0.88751295,0.79463366,0.71671829,0.62487099)
new loadshape.curva_carga_5711 npts=24, interval=1 mult=(0.47776035,0.35766615,0.29879645,0.27498693,0.26399791,0.26766092,0.28519101,0.29879645,0.35975929,0.39246467,0.41889062,0.42726322,0.47148091,0.44767137,0.41287285,0.41862902,0.43040296,0.48822606,0.74463632,1,0.88592366,0.78806909,0.70486655,0.60832027)
new loadshape.curva_carga_5726 npts=24, interval=1 mult=(0.4673652,0.33595286,0.27308448,0.24776251,0.23553809,0.23946737,0.25714911,0.30866623,0.36629558,0.38812488,0.41082736,0.41737613,0.46823838,0.44313472,0.40362366,0.40864439,0.42108711,0.4835189,0.71687403,1,0.88867058,0.79022053,0.70377647,0.6040166)
new loadshape.curva_carga_5587 npts=24, interval=1 mult=(0.22916667,0.23958334,0.22916667,0.21875,0.21875,0.20833333,0.22916667,0.27083334,0.40625001,0.66666667,0.79166671,0.83333333,0.80208334,0.78125003,0.80208334,0.82291671,0.84375002,0.8541667,1,0.89583333,0.65625004,0.5,0.42708335,0.32291668)
new loadshape.curva_carga_5690 npts=24, interval=1 mult=(0.58099884,0.57000202,0.54900378,0.57399946,0.58900154,0.63099808,0.72500038,0.77400416,0.82999945,0.90200025,0.97799838,0.96500284,0.95700014,1,0.9870044,0.99499929,0.97700298,0.89100343,0.8030051,0.78500098,0.79100501,0.81400198,0.67699987,0.61500841)
new loadshape.curva_carga_5562 npts=24, interval=1 mult=(0.65480425,0.59549227,0.56346378,0.5492289,0.54329771,0.54448396,0.55634634,0.18268089,0.22894424,0.27520758,0.3024911,0.31198101,0.33214707,0.31791219,0.30130485,0.30723604,0.31553972,0.34638197,0.88137602,1,0.91340446,0.84460259,0.79359429,0.73309605)
new loadshape.curva_carga_5537 npts=24, interval=1 mult=(0.28103409,0.26989078,0.2435926,0.22910631,0.22665477,0.22264319,0.24515266,0.29240027,0.42701138,0.65455762,0.76376197,0.80298636,0.78448851,0.76532207,0.77646531,0.79652327,0.80855802,0.83017608,1,0.96434141,0.73367504,0.58145754,0.49810564,0.39313573)
new loadshape.curva_carga_5561 npts=24, interval=1 mult=(0.22535212,0.24199744,0.22535212,0.21446863,0.21446863,0.20870678,0.23047375,0.26952625,0.41229195,0.67029451,0.79129323,0.83546738,0.80217671,0.78553137,0.80793857,0.82970552,0.84058899,0.85147247,1,0.89564662,0.65364918,0.5,0.42317543,0.32394366)
new loadshape.curva_carga_5743 npts=24, interval=1 mult=(0.42902996,0.32275323,0.26747504,0.24429387,0.23395151,0.23644794,0.25499287,0.30634807,0.38088447,0.44757491,0.48930102,0.50285309,0.53994294,0.51569189,0.48644793,0.49500716,0.50784596,0.5616976,0.78388021,1,0.86162625,0.75035665,0.66369476,0.5616976)
new loadshape.curva_carga_5727 npts=24, interval=1 mult=(0.44643117,0.34940642,0.2978162,0.27656455,0.26791732,0.27070203,0.28946211,0.29884214,0.37652058,0.45097463,0.49450385,0.50930673,0.53817966,0.51575553,0.4911329,0.5006595,0.51209144,0.56162977,0.80800233,1,0.86164437,0.75289457,0.67023298,0.57232889)
new loadshape.curva_carga_5643 npts=24, interval=1 mult=(0.38723228,0.36329275,0.33515332,0.3204536,0.31709368,0.31415373,0.33431333,0.2708946,0.38597228,0.57202859,0.66274677,0.69508615,0.68626632,0.6677867,0.67240655,0.68920626,0.70012601,0.72490553,0.99580009,1,0.80092398,0.66694668,0.58966822,0.49349013)
new loadshape.curva_carga_5706 npts=24, interval=1 mult=(0.38543617,0.34668663,0.31317857,0.29839011,0.29651815,0.29801573,0.31991764,0.29988768,0.42025459,0.59565705,0.67933361,0.71040812,0.69692999,0.67933361,0.68289028,0.7006739,0.70947213,0.73755148,0.96780232,1,0.80587793,0.67409212,0.59472105,0.49625609)
new loadshape.curva_carga_5565 npts=24, interval=1 mult=(0.36342757,0.34469963,0.32102472,0.32014134,0.34063603,0.36660776,0.39964664,0.40035336,0.59593639,0.83003534,0.91696111,0.95865724,0.84452297,0.84646644,0.8927562,0.92667846,0.91431095,0.91837455,1,0.91961126,0.7155477,0.59505299,0.53021201,0.44416961)
new loadshape.curva_carga_5704 npts=24, interval=1 mult=(0.46247861,0.34759227,0.28990465,0.26643851,0.25543876,0.25812759,0.27597163,0.29919334,0.36372523,0.40772426,0.43950132,0.44952332,0.49230014,0.46810069,0.43510141,0.44145685,0.45367878,0.51038865,0.7582498,1,0.87778043,0.77560495,0.69151793,0.59325345)
new loadshape.curva_carga_5571 npts=24, interval=1 mult=(0.48859191,0.36896999,0.30606258,0.28096481,0.27020861,0.2708605,0.2874837,0.30964796,0.37548891,0.40743155,0.43546284,0.44491525,0.48696218,0.46740547,0.43839635,0.43839635,0.44556714,0.50456321,0.74380701,1,0.8885267,0.79204691,0.71056061,0.61408082)
new loadshape.curva_carga_5656 npts=24, interval=1 mult=(0.58099887,0.57000207,0.54900377,0.57399948,0.58900159,0.63099811,0.72500042,0.77400416,0.82999946,0.90200028,0.97799842,0.96500287,0.95700024,1,0.98700446,0.99499927,0.977003,0.89100347,0.80300513,0.78500104,0.79100509,0.81400201,0.67699985,0.61500844)
new loadshape.curva_carga_5615 npts=24, interval=1 mult=(0.470229,0.33333335,0.26768449,0.24147584,0.22900763,0.23256998,0.24987279,0.3129771,0.3687023,0.38244277,0.40229009,0.4076336,0.46208654,0.43689571,0.39592877,0.39949109,0.41145041,0.47608146,0.70178121,1,0.89287534,0.79567436,0.7089059,0.60839699)
new loadshape.curva_carga_5498 npts=24, interval=1 mult=(0.44423442,0.45746695,0.44423442,0.43667297,0.43667297,0.43289226,0.44801512,0.19281664,0.29489604,0.48015125,0.56710778,0.59735354,0.57466923,0.56332708,0.57844993,0.59357279,0.60302462,0.61058602,1,0.92438567,0.75236299,0.64083178,0.58601138,0.51606809)
new loadshape.curva_carga_5510 npts=24, interval=1 mult=(0.42673994,0.37098089,0.33292634,0.31542532,0.30952381,0.30870981,0.32763535,0.27492878,0.36955639,0.50122103,0.56898659,0.59279612,0.60236062,0.58241761,0.5732601,0.58608059,0.59747661,0.63288563,0.9116809,1,0.83231584,0.71245421,0.63431014,0.53947906)
new loadshape.curva_carga_5529 npts=24, interval=1 mult=(0.47826087,0.34992987,0.28611501,0.26086957,0.24964938,0.25315569,0.27068725,0.31697055,0.38148668,0.40673212,0.43127629,0.43899021,0.48316971,0.46143057,0.42776999,0.43057506,0.43969144,0.50070127,0.72580648,1,0.88920056,0.79242641,0.70827489,0.6093969)
new loadshape.curva_carga_5624 npts=24, interval=1 mult=(0.47188758,0.33993116,0.27309236,0.24641422,0.23465289,0.23637408,0.25358578,0.32071143,0.38324728,0.4047619,0.42828456,0.43602984,0.48508318,0.46299486,0.4279977,0.42885828,0.43746415,0.50143433,0.71399885,1,0.89013193,0.79202525,0.70625359,0.605852)