new loadshape.curve_load_5795 npts=24, interval=1 mult=(0.5420951,0.46840292,0.42393408,0.4170324,0.41622773,0.43290296,0.47841537,0.49172418,0.56663473,0.64179916,0.69667105,0.70256977,0.71888522,0.71800778,0.69713062,0.70613099,0.70748235,0.71857107,0.87090817,1,0.9073906,0.83221207,0.73011757,0.64154899)
new loadshape.curve_load_5794 npts=24, interval=1 mult=(0.49345293,0.40221088,0.35197739,0.33594988,0.33021687,0.33908128,0.36953803,0.39132593,0.46663307,0.53540263,0.58107966,0.59109721,0.61619637,0.60308602,0.57901521,0.58759077,0.59459238,0.63269001,0.82937214,1,0.88778777,0.78916414,0.70046803,0.60810818)
new loadshape.curve_load_5796 npts=24, interval=1 mult=(0.57292106,0.50474002,0.46208874,0.46030046,0.46218222,0.4841868,0.53947181,0.55751929,0.63101838,0.70464331,0.76328507,0.76566747,0.77904199,0.78530574,0.76430333,0.773392,0.77141417,0.76557577,0.88495666,1,0.92276136,0.86498963,0.75290074,0.6654068)
new loadshape.curve_load_5165 npts=24, interval=1 mult=(1,1,1,1,1,1,1,0,0,0,0,0,0,0,0,0,0,0,1,1,1,1,1,1)
new loadshape.curve_load_5276 npts=24, interval=1 mult=(0.47685684,0.35306781,0.29278793,0.26856833,0.25672765,0.25995693,0.27717976,0.29924649,0.35737349,0.38482237,0.40958019,0.41657693,0.46501611,0.44079656,0.40365982,0.40850375,0.42088265,0.48062428,0.73412266,1,0.88805162,0.79063504,0.7066738,0.60925722)
new loadshape.curve_load_5268 npts=24, interval=1 mult=(0.73469384,0.66666667,0.6530612,0.64625851,0.63945577,0.6530612,0.68027213,0.25170067,0.26530612,0.27891157,0.29251699,0.27891157,0.26530612,0.26530612,0.25850341,0.25850341,0.26530612,0.30612244,0.82993195,1,0.97959184,0.91836736,0.85034011,0.79591832)
new loadshape.curve_load_5198 npts=24, interval=1 mult=(0.51612901,0.41935484,0.45161291,0.45161291,0.41935484,0.48387099,0.58064516,0.64516127,0.64516127,0.67741934,0.70967742,0.64516127,0.54838709,0.54838709,0.58064516,0.58064516,0.61290324,0.67741934,0.64516127,0.96774197,1,0.90322582,0.70967742,0.61290324)
new loadshape.curve_load_5180 npts=24, interval=1 mult=(0.47990899,0.343442,0.27899924,0.25246398,0.24033357,0.24412434,0.26156178,0.30553448,0.35860501,0.36770281,0.38589841,0.39044731,0.44503411,0.42001514,0.37755876,0.38134951,0.39423805,0.45868081,0.70053066,1,0.89613339,0.80212277,0.7156937,0.61713415)
new loadshape.curve_load_5155 npts=24, interval=1 mult=(0.49822063,0.36921708,0.3069395,0.28202847,0.26957296,0.27313168,0.28914592,0.29893238,0.35320285,0.36832739,0.38790037,0.39323845,0.44395016,0.42081852,0.38345198,0.386121,0.39679715,0.45818507,0.71975087,1,0.89768684,0.80516019,0.72330961,0.6281139)
new loadshape.curve_load_5208 npts=24, interval=1 mult=(1,1,1,1,1,1,1,0,0,0,0,0,0,0,0,0,0,0,1,1,1,1,1,1)
new loadshape.curve_load_5221 npts=24, interval=1 mult=(1,1,1,1,1,1,1,0,0,0,0,0,0,0,0,0,0,0,1,1,1,1,1,1)
new loadshape.curve_load_5212 npts=24, interval=1 mult=(1,1,1,1,1,1,1,0,0,0,0,0,0,0,0,0,0,0,1,1,1,1,1,1)
new loadshape.curve_load_5183 npts=24, interval=1 mult=(1,1,1,1,1,1,1,0,0,0,0,0,0,0,0,0,0,0,1,1,1,1,1,1)
new loadshape.curve_load_5205 npts=24, interval=1 mult=(1,1,1,1,1,1,1,0,0,0,0,0,0,0,0,0,0,0,1,1,1,1,1,1)
new loadshape.curve_load_5220 npts=24, interval=1 mult=(1,1,1,1,1,1,1,0,0,0,0,0,0,0,0,0,0,0,1,1,1,1,1,1)
new loadshape.curve_load_5219 npts=24, interval=1 mult=(1,1,1,1,1,1,1,0,0,0,0,0,0,0,0,0,0,0,1,1,1,1,1,1)
new loadshape.curve_load_5188 npts=24, interval=1 mult=(1,1,1,1,1,1,1,0,0,0,0,0,0,0,0,0,0,0,1,1,1,1,1,1)
new loadshape.curve_load_5207 npts=24, interval=1 mult=(1,1,1,1,1,1,1,0,0,0,0,0,0,0,0,0,0,0,1,1,1,1,1,1)
new loadshape.curve_load_5224 npts=24, interval=1 mult=(1,1,1,1,1,1,1,0,0,0,0,0,0,0,0,0,0,0,1,1,1,1,1,1)
new loadshape.curve_load_5190 npts=24, interval=1 mult=(1,1,1,1,1,1,1,0,0,0,0,0,0,0,0,0,0,0,1,1,1,1,1,1)
new loadshape.curve_load_5182 npts=24, interval=1 mult=(1,1,1,1,1,1,1,0,0,0,0,0,0,0,0,0,0,0,1,1,1,1,1,1)
new loadshape.curve_load_5239 npts=24, interval=1 mult=(0.52691966,0.40511915,0.34730802,0.32436011,0.31288614,0.31641659,0.33230362,0.27537511,0.32347749,0.33539276,0.35216241,0.35701675,0.40600177,0.38305383,0.34510149,0.34907326,0.36054723,0.41835832,0.73389229,1,0.90467786,0.81818183,0.74051192,0.65092674)
new loadshape.curve_load_5226 npts=24, interval=1 mult=(1,1,1,1,1,1,1,0,0,0,0,0,0,0,0,0,0,0,1,1,1,1,1,1)
new loadshape.curve_load_5228 npts=24, interval=1 mult=(1,1,1,1,1,1,1,0,0,0,0,0,0,0,0,0,0,0,1,1,1,1,1,1)
new loadshape.curve_load_5202 npts=24, interval=1 mult=(1,1,1,1,1,1,1,0,0,0,0,0,0,0,0,0,0,0,1,1,1,1,1,1)
new loadshape.curve_load_5191 npts=24, interval=1 mult=(1,1,1,1,1,1,1,0,0,0,0,0,0,0,0,0,0,0,1,1,1,1,1,1)
new loadshape.curve_load_5211 npts=24, interval=1 mult=(1,1,1,1,1,1,1,0,0,0,0,0,0,0,0,0,0,0,1,1,1,1,1,1)
new loadshape.curve_load_5210 npts=24, interval=1 mult=(1,1,1,1,1,1,1,0,0,0,0,0,0,0,0,0,0,0,1,1,1,1,1,1)
new loadshape.curve_load_5192 npts=24, interval=1 mult=(1,1,1,1,1,1,1,0,0,0,0,0,0,0,0,0,0,0,1,1,1,1,1,1)
new loadshape.curve_load_5222 npts=24, interval=1 mult=(1,1,1,1,1,1,1,0,0,0,0,0,0,0,0,0,0,0,1,1,1,1,1,1)
new loadshape.curve_load_5213 npts=24, interval=1 mult=(1,1,1,1,1,1,1,0,0,0,0,0,0,0,0,0,0,0,1,1,1,1,1,1)
new loadshape.curve_load_5227 npts=24, interval=1 mult=(1,1,1,1,1,1,1,0,0,0,0,0,0,0,0,0,0,0,1,1,1,1,1,1)
new loadshape.curve_load_5215 npts=24, interval=1 mult=(0.48942919,0.36187459,0.30091614,0.27660324,0.26462298,0.26849894,0.2850599,0.29492601,0.34813249,0.36610292,0.38653984,0.39217762,0.44291757,0.41825229,0.37914025,0.38407331,0.39640595,0.45701198,0.72304441,1,0.89464411,0.80056379,0.71740666,0.62156451)
new loadshape.curve_load_5204 npts=24, interval=1 mult=(1,1,1,1,1,1,1,0,0,0,0,0,0,0,0,0,0,0,1,1,1,1,1,1)
new loadshape.curve_load_5200 npts=24, interval=1 mult=(1,1,1,1,1,1,1,0,0,0,0,0,0,0,0,0,0,0,1,1,1,1,1,1)
new loadshape.curve_load_5206 npts=24, interval=1 mult=(1,1,1,1,1,1,1,0,0,0,0,0,0,0,0,0,0,0,1,1,1,1,1,1)
new loadshape.curve_load_5201 npts=24, interval=1 mult=(1,1,1,1,1,1,1,0,0,0,0,0,0,0,0,0,0,0,1,1,1,1,1,1)
new loadshape.curve_load_5164 npts=24, interval=1 mult=(0.98692808,0.98692808,0.98692808,0.98692808,0.98692808,0.98692808,0.98692808,0.0065359475,0.0065359475,0.0065359475,0.0065359475,0.0065359475,0.0065359475,0.0065359475,0.0065359475,0.0065359475,0.0065359475,0.0065359475,0.99346408,1,0.99346408,0.99346408,0.99346408,0.99346408)
new loadshape.curve_load_5217 npts=24, interval=1 mult=(1,1,1,1,1,1,1,0,0,0,0,0,0,0,0,0,0,0,1,1,1,1,1,1)
new loadshape.curve_load_5260 npts=24, interval=1 mult=(0.58099886,0.570002,0.54900373,0.57399945,0.58900157,0.63099807,0.72500035,0.77400417,0.82999944,0.90200023,0.97799842,0.96500278,0.9570002,1,0.98700436,0.99499925,0.97700294,0.89100342,0.80300507,0.78500098,0.79100499,0.81400197,0.67699984,0.61500842)
new loadshape.curve_load_5223 npts=24, interval=1 mult=(1,1,1,1,1,1,1,0,0,0,0,0,0,0,0,0,0,0,1,1,1,1,1,1)
new loadshape.curve_load_5218 npts=24, interval=1 mult=(1,1,1,1,1,1,1,0,0,0,0,0,0,0,0,0,0,0,1,1,1,1,1,1)
new loadshape.curve_load_5240 npts=24, interval=1 mult=(0.78883493,0.79368928,0.78883493,0.78640773,0.78640773,0.78398053,0.79126208,0.072815534,0.11165048,0.18203883,0.21359223,0.22572814,0.21844659,0.21359223,0.21844659,0.22572814,0.22815533,0.23058252,1,0.97087379,0.90533977,0.86407766,0.842233,0.81553394)
new loadshape.curve_load_5187 npts=24, interval=1 mult=(1,1,1,1,1,1,1,0,0,0,0,0,0,0,0,0,0,0,1,1,1,1,1,1)
new loadshape.curve_load_5181 npts=24, interval=1 mult=(1,1,1,1,1,1,1,0,0,0,0,0,0,0,0,0,0,0,1,1,1,1,1,1)
new loadshape.curve_load_5186 npts=24, interval=1 mult=(0.31654677,0.32374101,0.30695442,0.30695442,0.32374101,0.34292564,0.37170264,0.35011991,0.53477217,0.78896879,0.88729015,0.93045561,0.8273381,0.8273381,0.87290166,0.90647478,0.89688249,0.89688249,1,0.87050356,0.6594724,0.53237407,0.47242208,0.39088727)
new loadshape.curve_load_5233 npts=24, interval=1 mult=(0.25080386,0.24115756,0.22829582,0.244373,0.29260451,0.34726688,0.38906754,0.45016077,0.69131837,0.90996783,0.9614148,1,0.78456592,0.81028944,0.89710615,0.94212219,0.90353699,0.88102893,0.70739551,0.55305466,0.41157556,0.34726688,0.32154343,0.27331191)
new loadshape.curve_load_5199 npts=24, interval=1 mult=(0.58099893,0.57000208,0.5490038,0.57399949,0.58900163,0.63099811,0.72500039,0.77400422,0.82999951,0.90200028,0.97799849,0.96500292,0.95700021,1,0.9870045,0.99499932,0.977003,0.8910035,0.80300514,0.785001,0.79100512,0.81400198,0.67699992,0.61500847)
new loadshape.curve_load_5262 npts=24, interval=1 mult=(0.37575757,0.38232323,0.36616161,0.35606061,0.35555556,0.35101009,0.36969696,0.22828283,0.3439394,0.54848484,0.64545457,0.68030302,0.6570707,0.64242425,0.65808081,0.67525252,0.68484848,0.69646466,1,0.93232323,0.73585857,0.60959597,0.54444445,0.46111112)
new loadshape.curve_load_5252 npts=24, interval=1 mult=(0.21739129,0.23913043,0.21739129,0.21739129,0.21739129,0.21739129,0.21739129,0.26086955,0.41304348,0.67391304,0.78260869,0.82608696,0.8043478,0.78260869,0.8043478,0.82608696,0.82608696,0.84782607,1,0.89130435,0.65217393,0.5,0.41304348,0.32608696)
new loadshape.curve_load_5153 npts=24, interval=1 mult=(0.50339075,0.39488786,0.34115807,0.31977049,0.31038082,0.31455399,0.3317684,0.2842984,0.3468962,0.38654149,0.41471052,0.42357854,0.45957224,0.43818466,0.40792907,0.41471052,0.42514348,0.47782996,0.77360461,1,0.88784563,0.79394893,0.71622328,0.62493481)
new loadshape.curve_load_5177 npts=24, interval=1 mult=(0.51558607,0.38715711,0.32730675,0.30361596,0.29114716,0.29551122,0.31109726,0.28428928,0.33229429,0.34039903,0.35660848,0.36034913,0.41271823,0.38840401,0.34850377,0.35224442,0.36471323,0.42456362,0.72007484,1,0.90399004,0.8160848,0.73566091,0.64401499)
new loadshape.curve_load_5257 npts=24, interval=1 mult=(0.48965234,0.3737583,0.31705299,0.29387418,0.28311258,0.28600994,0.30298013,0.28725167,0.34561258,0.37831125,0.40521522,0.41307946,0.45778148,0.43377483,0.39942055,0.40521522,0.41721857,0.47350992,0.75372516,1,0.88824507,0.79221854,0.71109271,0.61672186)
new loadshape.curve_load_5259 npts=24, interval=1 mult=(0.50963082,0.38523277,0.32624398,0.30256823,0.29093097,0.29454254,0.3105939,0.28451043,0.33507223,0.35032103,0.36918139,0.37439807,0.4241573,0.40008026,0.36195826,0.3663724,0.3784109,0.43699838,0.72993581,1,0.89967899,0.80939003,0.7295345,0.63683786)
new loadshape.curve_load_5154 npts=24, interval=1 mult=(0.47258066,0.3655914,0.31129031,0.28924731,0.27903225,0.28118278,0.29892473,0.28870967,0.35376343,0.40430107,0.43817205,0.44892472,0.48817205,0.46451611,0.4344086,0.44139783,0.45376344,0.50645161,0.77795698,1,0.87688176,0.77580647,0.69408602,0.59892473)
new loadshape.curve_load_5251 npts=24, interval=1 mult=(0.46329913,0.34214682,0.28196528,0.2573007,0.24605368,0.24881609,0.26637727,0.30505131,0.36799528,0.40390688,0.4329124,0.44179164,0.48737176,0.46329913,0.42857142,0.43370167,0.44554064,0.5047356,0.74230466,1,0.88180745,0.78058408,0.69554066,0.59629045)
new loadshape.curve_load_5234 npts=24, interval=1 mult=(0.50917673,0.39066597,0.33298375,0.30991085,0.29889881,0.30204511,0.31830101,0.28316729,0.33717883,0.36025172,0.38280023,0.38961722,0.4352386,0.41269009,0.37755638,0.38175145,0.39328789,0.44992136,0.74514946,1,0.89617203,0.80492923,0.72574728,0.63398011)
new loadshape.curve_load_5179 npts=24, interval=1 mult=(0.64864868,0.55675678,0.51216216,0.49594595,0.48648648,0.4891892,0.50135136,0.20540541,0.24054055,0.24594595,0.25810811,0.26081081,0.29864866,0.28108108,0.25270271,0.2554054,0.26351351,0.30675676,0.79729733,1,0.9297297,0.8662162,0.80810809,0.74189188)
new loadshape.curve_load_5237 npts=24, interval=1 mult=(0.70823528,0.63058818,0.59294117,0.57882352,0.5717647,0.5741176,0.58352939,0.1717647,0.19999999,0.20470587,0.21411764,0.21882351,0.24941176,0.23529412,0.20941176,0.21176469,0.22117646,0.25647058,0.83058821,1,0.94117646,0.8894117,0.83999994,0.78588232)
new loadshape.curve_load_5242 npts=24, interval=1 mult=(0.44065354,0.34334454,0.28976452,0.26741951,0.25828929,0.25901009,0.2775108,0.30153772,0.37938491,0.45434886,0.4992792,0.5146564,0.54613166,0.52402691,0.5,0.50720806,0.51826046,0.56919749,0.80490149,1,0.86040366,0.75012012,0.66650646,0.56727532)
new loadshape.curve_load_5265 npts=24, interval=1 mult=(0.48884076,0.3564464,0.29317444,0.26782233,0.25568799,0.25915493,0.27605635,0.30119177,0.35449621,0.36706392,0.38569881,0.39089924,0.44377031,0.41928494,0.37919828,0.38288192,0.39458288,0.45720477,0.71137596,1,0.89685813,0.80325026,0.71939329,0.62231856)
new loadshape.curve_load_5263 npts=24, interval=1 mult=(0.49165849,0.36015702,0.29685967,0.27134447,0.25907754,0.2620216,0.2791953,0.30323848,0.35819432,0.37193327,0.39156037,0.39695779,0.4484789,0.4249264,0.38665361,0.38959765,0.39990188,0.46270853,0.71442592,1,0.89695779,0.8037292,0.72031405,0.62365067)
new loadshape.curve_load_5157 npts=24, interval=1 mult=(0.46730697,0.3457702,0.28629478,0.26191355,0.25046176,0.25378648,0.27151828,0.30033246,0.36054671,0.39379386,0.4211304,0.42962687,0.47617287,0.45142222,0.41521979,0.4211304,0.43369042,0.49279644,0.74067232,1,0.88363498,0.78352417,0.69892871,0.60029549)
new loadshape.curve_load_5235 npts=24, interval=1 mult=(0.47057385,0.34896215,0.28962149,0.26568986,0.25470085,0.25836385,0.27619047,0.3018315,0.36336995,0.39682538,0.42393162,0.43223442,0.47716729,0.45274726,0.41733822,0.42344324,0.43565323,0.49401711,0.74212454,1,0.88424909,0.78485962,0.70061047,0.60268619)
new loadshape.curve_load_5209 npts=24, interval=1 mult=(0.80044842,0.74887894,0.72421523,0.71300449,0.7085202,0.71076232,0.71748878,0.11659193,0.1367713,0.14125561,0.14798207,0.14798207,0.17040359,0.15919282,0.14349776,0.14573991,0.15022421,0.17488789,0.88565019,1,0.96188343,0.92376686,0.8923767,0.85426008)
new loadshape.curve_load_5231 npts=24, interval=1 mult=(0.70437015,0.64781493,0.61953726,0.60796916,0.60539845,0.60925446,0.62082261,0.17480719,0.22236504,0.26221078,0.2840617,0.29305911,0.30077119,0.29048843,0.2789203,0.28534703,0.28920307,0.31619538,0.89331616,1,0.9267352,0.86889456,0.82390743,0.77120822)
new loadshape.curve_load_5253 npts=24, interval=1 mult=(0.479739,0.35096152,0.28880495,0.26407967,0.25206044,0.2554945,0.27266483,0.30151098,0.35748625,0.37774725,0.39972528,0.40590658,0.45673076,0.43200549,0.39320055,0.39766482,0.41002746,0.47115385,0.72149726,1,0.89182695,0.79567307,0.71119508,0.61332414)
new loadshape.curve_load_5256 npts=24, interval=1 mult=(0.44656343,0.30117069,0.23300604,0.20562688,0.19203171,0.19656343,0.21487915,0.32401813,0.37934291,0.3897281,0.40861028,0.4133308,0.47224321,0.44486405,0.3995468,0.40426736,0.41786252,0.486216,0.68240177,1,0.8897281,0.78889724,0.69769636,0.59252268)
new loadshape.curve_load_5255 npts=24, interval=1 mult=(0.76229511,0.69945355,0.67076506,0.65846995,0.65437162,0.65573775,0.66393447,0.14207651,0.16666667,0.17349727,0.18169399,0.18306011,0.20628415,0.19535519,0.17622952,0.17896175,0.18442624,0.21311476,0.86475408,1,0.95218581,0.90846995,0.86885248,0.82377048)
new loadshape.curve_load_5250 npts=24, interval=1 mult=(0.57944416,0.5039329,0.46407971,0.44887259,0.44362876,0.44729945,0.46250657,0.23807028,0.30152072,0.35972733,0.39223914,0.40377557,0.42003147,0.40429996,0.38751967,0.39538544,0.4027268,0.43995807,0.8542213,1,0.8945989,0.81227061,0.74934456,0.67488202)
new loadshape.curve_load_5166 npts=24, interval=1 mult=(0.46882349,0.39588233,0.3535294,0.33529411,0.32823528,0.32882352,0.34705882,0.27117647,0.35176468,0.44764705,0.5,0.51823524,0.53647054,0.51647055,0.5,0.51058821,0.52176468,0.56176465,0.86588233,1,0.85647054,0.74882347,0.67294111,0.58176469)
new loadshape.curve_load_5241 npts=24, interval=1 mult=(0.48643326,0.37833699,0.32275712,0.30131292,0.29409191,0.29934355,0.31794312,0.30809629,0.38315101,0.43544858,0.46761488,0.4794311,0.50590809,0.48643326,0.46192562,0.46914661,0.47680526,0.52866521,0.78227577,1,0.87964989,0.78161924,0.70218822,0.6083151)
new loadshape.curve_load_5162 npts=24, interval=1 mult=(0.99773754,0.99773754,0.99773754,0.99773754,0.99547508,0.99547508,0.99773754,0.0022624433,0.0022624433,0.0022624433,0.0022624433,0.0022624433,0.0022624433,0.0022624433,0.0022624433,0.0022624433,0.0022624433,0.0022624433,1,1,1,1,1,0.99773754)
new loadshape.curve_load_5243 npts=24, interval=1 mult=(0.92134831,0.92415725,0.92134831,0.92134831,0.92134831,0.9185393,0.92134831,0.028089886,0.042134832,0.067415727,0.078651685,0.084269665,0.081460671,0.078651685,0.081460671,0.084269665,0.084269665,0.08707865,1,0.98876403,0.96348313,0.94943815,0.94101118,0.93258422)
new loadshape.curve_load_5158 npts=24, interval=1 mult=(1,1,1,1,1,1,1,0,0,0,0,0,0,0,0,0,0,0,1,1,1,1,1,1)
new loadshape.curve_load_5273 npts=24, interval=1 mult=(0.35283732,0.32938208,0.30012611,0.2849937,0.2814628,0.27843632,0.29987389,0.28474148,0.40706181,0.60580073,0.70239596,0.73694828,0.72635559,0.70718787,0.71273643,0.7306431,0.74224463,0.76746532,1,0.99924339,0.78814627,0.64640602,0.56519544,0.46406053)
new loadshape.curve_load_5172 npts=24, interval=1 mult=(0.32693824,0.28515112,0.24862025,0.23180027,0.22890933,0.22917215,0.25256242,0.32115637,0.4494087,0.63942181,0.73114325,0.76478321,0.7542707,0.73429697,0.73666231,0.75532195,0.76609724,0.79737186,0.96294349,1,0.78817348,0.643364,0.55637319,0.44862022)
new loadshape.curve_load_5254 npts=24, interval=1 mult=(0.44562762,0.31010003,0.24459502,0.21845756,0.20555017,0.20942239,0.22749274,0.31945788,0.37947725,0.40271054,0.42658921,0.4333656,0.48693125,0.46047111,0.41949016,0.42465309,0.43788319,0.50274282,0.70667956,1,0.88383345,0.78121974,0.69151339,0.58760887)
new loadshape.curve_load_5159 npts=24, interval=1 mult=(0.40949385,0.38718901,0.36202458,0.35601945,0.36659993,0.38146983,0.40835,0.33714612,0.49385189,0.69659705,0.7795253,0.81527024,0.74549615,0.74006289,0.76808694,0.79410922,0.79067773,0.80297396,1,0.96025167,0.76894481,0.64941375,0.58278523,0.49671148)
new loadshape.curve_load_5266 npts=24, interval=1 mult=(0.28150498,0.29691751,0.28150498,0.27153219,0.27153219,0.26609248,0.2864914,0.24977335,0.38259294,0.62194019,0.73390754,0.77470538,0.74388037,0.72892112,0.74932004,0.76971896,0.7796918,0.79011788,1,0.9029919,0.67905716,0.53626476,0.4650952,0.37307344)
new loadshape.curve_load_5275 npts=24, interval=1 mult=(0.56022096,0.56574581,0.55580109,0.55469611,0.5635359,0.57237565,0.59005524,0.21104971,0.32265193,0.48287293,0.5469613,0.57569059,0.51712702,0.51602209,0.54254142,0.56132594,0.558011,0.55911598,1,0.92265186,0.78563533,0.70386738,0.6629834,0.60994473)
new loadshape.curve_load_5245 npts=24, interval=1 mult=(0.43140793,0.32638659,0.2714145,0.24844108,0.23826714,0.24040039,0.25910732,0.30472596,0.37906136,0.44634066,0.48834918,0.50196913,0.53856253,0.51427632,0.48539547,0.49392843,0.50672793,0.56022313,0.78634721,1,0.86183128,0.75090248,0.66475218,0.56334097)
new loadshape.curve_load_5170 npts=24, interval=1 mult=(0.47552175,0.35673883,0.29861516,0.27559976,0.26526234,0.26974838,0.28769261,0.30193094,0.36590597,0.40276963,0.43046615,0.43924322,0.48020285,0.45660229,0.42324947,0.43007608,0.44138873,0.49834211,0.75073143,1,0.88375271,0.78525449,0.70216497,0.60542226)
new loadshape.curve_load_5244 npts=24, interval=1 mult=(0.44867825,0.33960465,0.28316265,0.26030006,0.25053584,0.2536318,0.27244581,0.30840677,0.38175757,0.44034292,0.47773276,0.49035483,0.52536316,0.50250058,0.47392235,0.48154322,0.49273635,0.54703501,0.77685166,1,0.86925456,0.76280068,0.67825673,0.5787092)
new loadshape.curve_load_5161 npts=24, interval=1 mult=(0.47875567,0.37481032,0.32144664,0.30121396,0.29463833,0.30096106,0.32018208,0.30804248,0.386697,0.44714214,0.48229639,0.49519471,0.51745069,0.49747092,0.47420335,0.48381388,0.49215984,0.54172989,0.79514418,1,0.8745574,0.77440564,0.69499242,0.60091047)
new loadshape.curve_load_5171 npts=24, interval=1 mult=(0.44433056,0.32632926,0.26739269,0.24304931,0.2317745,0.23472132,0.25317103,0.30762332,0.37411915,0.42024342,0.45329913,0.46367711,0.50762331,0.48263934,0.44830238,0.45534912,0.46828955,0.52632928,0.75208196,1,0.8735426,0.767713,0.68097369,0.57962842)
new loadshape.curve_load_5173 npts=24, interval=1 mult=(0.47624676,0.34601749,0.2836209,0.25880407,0.24722287,0.2514772,0.26920349,0.30725598,0.36539826,0.38643345,0.40817776,0.41479558,0.46348383,0.43890335,0.40061452,0.40557789,0.41763177,0.47908295,0.71992438,1,0.89080594,0.79413848,0.70905223,0.61073032)
new loadshape.curve_load_5246 npts=24, interval=1 mult=(0.24933255,0.26238504,0.24517947,0.23405518,0.23375855,0.2285672,0.25007418,0.26549985,0.40418274,0.65307031,0.76994962,0.81237024,0.78166721,0.76535157,0.78552362,0.80688226,0.81770992,0.82957581,1,0.905666,0.67057255,0.52046871,0.44467518,0.34737468)
new loadshape.curve_load_5163 npts=24, interval=1 mult=(0.42005901,0.33451327,0.28593903,0.26489675,0.25624385,0.25722714,0.27630286,0.29695183,0.38112093,0.47708946,0.5307768,0.54906588,0.57463126,0.55162241,0.5307768,0.54139625,0.55378565,0.60039331,0.83657815,1,0.84700097,0.73038349,0.64621435,0.54611602)
new loadshape.curve_load_5238 npts=24, interval=1 mult=(0.51214363,0.49208027,0.46884898,0.45723336,0.45406549,0.45195354,0.46884898,0.21647308,0.30728617,0.45406549,0.5258712,0.55121438,0.54487859,0.53009505,0.53326292,0.54699049,0.55543823,0.57550159,0.99366425,1,0.84160504,0.73495248,0.67370646,0.59662093)
new loadshape.curve_load_5184 npts=24, interval=1 mult=(0.36931961,0.34571932,0.31684661,0.30203365,0.2985187,0.2955059,0.31634447,0.27868441,0.39794126,0.59126288,0.68516194,0.71880493,0.70876226,0.68993224,0.69520465,0.71252824,0.72382626,0.74868193,0.9992468,1,0.79437613,0.65603818,0.57695208,0.47803164)
new loadshape.curve_load_5272 npts=24, interval=1 mult=(0.66516179,0.6440933,0.62603461,0.61851017,0.61851017,0.62001507,0.63280663,0.16930022,0.2385252,0.33634311,0.38224229,0.39954852,0.38750941,0.37923252,0.38224229,0.39277653,0.39653875,0.41158767,0.98495105,1,0.8931527,0.82167044,0.77878104,0.72535739)
new loadshape.curve_load_5168 npts=24, interval=1 mult=(0.45262948,0.33761544,0.27940587,0.25551987,0.24468086,0.24708953,0.26515456,0.30429547,0.37133683,0.41890808,0.45262948,0.46326779,0.50541954,0.4813328,0.44881577,0.45523886,0.46748297,0.52428744,0.75913291,1,0.87454842,0.76997192,0.68486556,0.58490566)
new loadshape.curve_load_5277 npts=24, interval=1 mult=(0.54501453,0.53339788,0.51790903,0.51887704,0.53630202,0.55759924,0.5818006,0.29428849,0.4414327,0.6127783,0.67473379,0.70571153,0.6127783,0.61665054,0.65440463,0.67957405,0.66892546,0.66892546,1,0.93126812,0.78606006,0.70183929,0.65827687,0.59825751)
new loadshape.curve_load_5232 npts=24, interval=1 mult=(0.25,0.23999998,0.22999999,0.25,0.28999998,0.34999997,0.38999998,0.44999997,0.68999998,0.90999996,0.95999993,1,0.77999997,0.80999996,0.89999994,0.93999995,0.89999994,0.87999997,0.70999996,0.55999999,0.40999999,0.34999997,0.31999998,0.26999998)
new loadshape.curve_load_5248 npts=24, interval=1 mult=(0.45855421,0.34000001,0.28120483,0.25710844,0.24602411,0.24891567,0.26698795,0.30192772,0.36554217,0.40602412,0.43638555,0.44578316,0.49060244,0.46602409,0.43108437,0.43759039,0.45036145,0.50819281,0.74963858,1,0.87879521,0.7761446,0.69108437,0.59180727)
new loadshape.curve_load_5174 npts=24, interval=1 mult=(0.43981098,0.32638311,0.26897415,0.24506534,0.23422298,0.23686405,0.2553517,0.30636643,0.37572979,0.42924662,0.46552682,0.47706425,0.51834863,0.4936058,0.46121768,0.46872398,0.48165142,0.53808734,0.76410901,1,0.86933562,0.76174593,0.67528496,0.57381155)
new loadshape.curve_load_5267 npts=24, interval=1 mult=(0.3379121,0.33585165,0.31490386,0.30288462,0.30151098,0.2973901,0.3176511,0.25618132,0.37946428,0.59306321,0.69436814,0.73111265,0.7101648,0.69368129,0.70707417,0.72561811,0.73592035,0.75240386,1,0.94848903,0.73763735,0.60061811,0.52747251,0.43475273)
new loadshape.curve_load_5169 npts=24, interval=1 mult=(0.40567615,0.40567615,0.38731218,0.37729549,0.37562603,0.37228714,0.38898165,0.22704508,0.33722872,0.52921535,0.62103505,0.65442405,0.63439066,0.61936562,0.6327212,0.6494157,0.65776297,0.67278797,1,0.94991653,0.76126875,0.63772955,0.57262104,0.49081804)
new loadshape.curve_load_5278 npts=24, interval=1 mult=(0.46986762,0.34281762,0.28156492,0.25666865,0.24481328,0.2483699,0.26595535,0.30310217,0.36099588,0.3864849,0.41059082,0.41770402,0.46729896,0.44220511,0.40367519,0.40920769,0.4218534,0.48271093,0.7265363,1,0.88757168,0.78897455,0.70361594,0.60482121)
new loadshape.curve_load_5261 npts=24, interval=1 mult=(0.46418735,0.35353537,0.29797981,0.27502297,0.26400368,0.2667585,0.28466485,0.29476585,0.35996329,0.40909094,0.44260791,0.45316807,0.49403124,0.47015611,0.43801655,0.44536275,0.45775943,0.51239672,0.7695133,1,0.87649225,0.77364559,0.69054181,0.59320478)
new loadshape.curve_load_5160 npts=24, interval=1 mult=(0.49645113,0.48738172,0.46766563,0.46017351,0.46490537,0.46845427,0.48777602,0.24566246,0.3623817,0.53194007,0.60686123,0.63682965,0.59700316,0.58990539,0.60962148,0.62618297,0.62697166,0.63840695,1,0.96017355,0.7985016,0.69558362,0.63998425,0.56821769)
new loadshape.curve_load_5185 npts=24, interval=1 mult=(0.27867202,0.2806841,0.25955735,0.24849093,0.24899396,0.24647887,0.26911469,0.28269617,0.42253519,0.65945671,0.76961769,0.81036212,0.77816899,0.76257543,0.78118713,0.8028169,0.81187125,0.82645872,1,0.92907445,0.70120722,0.55432595,0.47736418,0.37927565)
new loadshape.curve_load_5175 npts=24, interval=1 mult=(0.41405588,0.37552921,0.34292973,0.32726504,0.3234547,0.3221846,0.34165963,0.2726503,0.37891616,0.53852667,0.6172735,0.6452159,0.6426757,0.62447079,0.62320069,0.63844201,0.64902624,0.67781538,0.9585097,1,0.81752749,0.69178664,0.61558001,0.5211685)
new loadshape.curve_load_5271 npts=24, interval=1 mult=(0.33258175,0.32835399,0.30665163,0.29509583,0.29481397,0.29284105,0.31397971,0.26944758,0.39881624,0.61527621,0.71674181,0.75394589,0.72773394,0.71195038,0.72717026,0.74689965,0.75591883,0.77226606,1,0.94842163,0.73562571,0.59780157,0.52395714,0.43038332)
new loadshape.curve_load_5216 npts=24, interval=1 mult=(0.58099884,0.57000204,0.54900377,0.57399946,0.58900156,0.63099807,0.72500039,0.77400416,0.82999947,0.90200022,0.97799839,0.96500284,0.95700016,1,0.98700445,0.99499929,0.97700294,0.8910035,0.80300507,0.78500096,0.79100505,0.81400195,0.67699987,0.61500843)
new loadshape.curve_load_5274 npts=24, interval=1 mult=(0.41480206,0.35800344,0.32013769,0.30981067,0.31669536,0.33218589,0.35972463,0.37005165,0.51807231,0.68846819,0.76075734,0.7917384,0.74182448,0.73149746,0.74526677,0.76936317,0.76764199,0.79518069,0.95524955,1,0.81583473,0.69363166,0.616179,0.52151463)
new loadshape.curve_load_5176 npts=24, interval=1 mult=(0.40168968,0.31336404,0.26190474,0.24039938,0.23348694,0.23579109,0.25652841,0.32334868,0.41935484,0.52457754,0.58141318,0.60138243,0.61904759,0.59831029,0.58218124,0.59216588,0.60215053,0.64976958,0.83717356,1,0.84024578,0.71966204,0.63364053,0.52918584)
new loadshape.curve_load_5196 npts=24, interval=1 mult=(0.47727272,0.4659091,0.39204546,0.36363635,0.36931818,0.33522728,0.3465909,0.42045454,0.60227274,0.78977272,0.89204543,0.93749999,0.88636363,0.92045454,1,0.95454544,0.90340908,0.93749999,0.94318178,0.93749999,0.77272726,0.66477269,0.60795454,0.52272728)
new loadshape.curve_load_5197 npts=24, interval=1 mult=(0.58099887,0.57000204,0.54900377,0.57399945,0.58900157,0.6309981,0.72500041,0.77400418,0.82999951,0.90200028,0.97799841,0.96500284,0.95700019,1,0.98700443,0.99499926,0.97700295,0.89100344,0.80300509,0.78500102,0.79100509,0.81400198,0.67699986,0.61500845)
new loadshape.curve_load_5249 npts=24, interval=1 mult=(0.4103523,0.33576067,0.2906908,0.27100964,0.26333399,0.2637276,0.28321196,0.29462703,0.38575083,0.49970475,0.56071636,0.58177521,0.60047234,0.57842942,0.56248769,0.57429637,0.58649869,0.62920686,0.86616802,1,0.83723671,0.7165912,0.63333987,0.53335957)
new loadshape.curve_load_5229 npts=24, interval=1 mult=(0.5809989,0.57000208,0.54900376,0.5739995,0.58900158,0.6309981,0.72500043,0.77400419,0.82999947,0.90200031,0.97799841,0.96500282,0.95700025,1,0.98700441,0.99499925,0.97700303,0.89100354,0.80300512,0.78500101,0.79100508,0.814002,0.67699988,0.61500847)
new loadshape.curve_load_5230 npts=24, interval=1 mult=(0.45467628,0.3320144,0.27122303,0.24658273,0.23507195,0.23812951,0.25629497,0.30935254,0.37356117,0.41061152,0.44010792,0.44910074,0.49496402,0.47032374,0.43489211,0.44082735,0.45287772,0.51258994,0.73956837,1,0.87949644,0.77679856,0.69046763,0.58974824)
new loadshape.curve_load_5270 npts=24, interval=1 mult=(0.44731445,0.33702337,0.2808528,0.25789257,0.24805247,0.25174252,0.27019269,0.30668306,0.37884376,0.43583436,0.47232471,0.48462482,0.52070518,0.49733494,0.46740467,0.47560473,0.48749485,0.5420254,0.77408773,1,0.86920864,0.76301763,0.67814677,0.57810577)
new loadshape.curve_load_5264 npts=24, interval=1 mult=(0.44934806,0.32572717,0.26454362,0.23971916,0.22818456,0.23119359,0.24949849,0.3104313,0.37462387,0.41223672,0.44182545,0.45085256,0.49774325,0.47266802,0.43630893,0.44257775,0.45511534,0.51529588,0.73746241,1,0.87813443,0.77432298,0.68731195,0.58575729)
