//-----------------------------
//Prof. Dr. Juan Carlos Cebrian
//-----------------------------
 
//------------------
//CIRCUIT
//------------------
 
clear
//--------------------------------------------// 
Redirect        LoadShape.dss
//--------------------------------------------//
new circuit.RedeOpenDSS bus1 = 2261 pu = 1 basekv = 88 phases = 3 mvasc3 = 2158.70331449229 mvasc1 = 2061.55281280883 x1r1 = 4.20000008679926 x0r0 = 3.68978115260079 
//-----------------------
//------------------------------------//
//Lines
//--------------------------------------------//
New line.line_MCLD204_3792 bus1 = 2126 bus2 = 446 length = 0.57119999 phases = 3 r1 = 0.23558439 x1 = 0.29560672 r0 = 0.73564098 x0 = 0.93550417 c1 = 0 c0 = 0 units = km normamps = 485.32773 
New line.line_MCLD204_3799 bus1 = 446 bus2 = 548 length = 0.2814 phases = 3 r1 = 0.20060001 x1 = 0.40259999 r0 = 0.72000001 x0 = 1.4069999 c1 = 0 c0 = 0 units = km normamps = 576 
New line.line_MCLD204_3800 bus1 = 548 bus2 = 518 length = 0.1012 phases = 3 r1 = 0.2006 x1 = 0.40260001 r0 = 0.72000003 x0 = 1.407 c1 = 0 c0 = 0 units = km normamps = 576 
New line.line_MCLD204_3801 bus1 = 518 bus2 = 517 length = 1.4464999 phases = 3 r1 = 0.2006 x1 = 0.40259999 r0 = 0.71999996 x0 = 1.407 c1 = 0 c0 = 0 units = km normamps = 576 
New line.line_MCLD204_3803 bus1 = 517 bus2 = 515 length = 0.079800002 phases = 3 r1 = 0.24690001 x1 = 0.26100002 r0 = 0.74070002 x0 = 0.78299997 c1 = 0 c0 = 0 units = km normamps = 456 
New line.line_MCLD204_3806 bus1 = 515 bus2 = 530 length = 0.070799999 phases = 3 r1 = 0.2469 x1 = 0.261 r0 = 0.7407 x0 = 0.78300001 c1 = 0 c0 = 0 units = km normamps = 456 
New line.line_MCLD204_3807 bus1 = 516 bus2 = 513 length = 0.16799999 phases = 3 r1 = 1.4979135 x1 = 0.52805607 r0 = 1.7025174 x0 = 0.99488771 c1 = 0 c0 = 0 units = km normamps = 163.1125 
New line.line_MCLD204_3808 bus1 = 2488 bus2 = 512 length = 0.034000002 phases = 3 r1 = 0.73940003 x1 = 0.3048 r0 = 2.2182 x0 = 0.9144 c1 = 0 c0 = 0 units = km normamps = 229 
New line.line_MCLD204_3812 bus1 = 2486 bus2 = 2483 length = 0.043000001 phases = 3 r1 = 0.73939999 x1 = 0.30479999 r0 = 2.2182 x0 = 0.91440001 c1 = 0 c0 = 0 units = km normamps = 229 
New line.line_MCLD204_3814 bus1 = 498 bus2 = 497 length = 0.0337 phases = 3 r1 = 0.24689998 x1 = 0.261 r0 = 0.7407 x0 = 0.78300004 c1 = 0 c0 = 0 units = km normamps = 456 
New line.line_MCLD204_3815 bus1 = 2486 bus2 = 2482 length = 0.92530003 phases = 3 r1 = 0.20118544 x1 = 0.40080953 r0 = 0.72026177 x0 = 1.3991098 c1 = 0 c0 = 0 units = km normamps = 574.48265 
New line.line_MCLD204_3819 bus1 = 2482 bus2 = 2479 length = 0.2038 phases = 3 r1 = 0.21354946 x1 = 0.36299648 r0 = 0.72578951 x0 = 1.2324759 c1 = 0 c0 = 0 units = km normamps = 542.43768 
New line.line_MCLD204_3817 bus1 = 496 bus2 = 493 length = 0.1016 phases = 3 r1 = 0.24690001 x1 = 0.26100001 r0 = 0.74070001 x0 = 0.783 c1 = 0 c0 = 0 units = km normamps = 456 
New line.line_MCLD204_3818 bus1 = 496 bus2 = 492 length = 0.097999997 phases = 3 r1 = 0.2469 x1 = 0.26100001 r0 = 0.74070005 x0 = 0.78300002 c1 = 0 c0 = 0 units = km normamps = 456 
New line.line_MCLD204_3820 bus1 = 494 bus2 = 490 length = 0.1016 phases = 3 r1 = 0.24690001 x1 = 0.26100001 r0 = 0.74070001 x0 = 0.783 c1 = 0 c0 = 0 units = km normamps = 456 
New line.line_MCLD204_3821 bus1 = 494 bus2 = 489 length = 0.066 phases = 3 r1 = 0.2469 x1 = 0.26100002 r0 = 0.74070001 x0 = 0.78299998 c1 = 0 c0 = 0 units = km normamps = 456 
New line.line_MCLD204_3824 bus1 = 491 bus2 = 486 length = 0.1286 phases = 3 r1 = 0.24690002 x1 = 0.26100001 r0 = 0.74070001 x0 = 0.78299999 c1 = 0 c0 = 0 units = km normamps = 456 
New line.line_MCLD204_3825 bus1 = 491 bus2 = 485 length = 0.0995 phases = 3 r1 = 0.24690002 x1 = 0.26100001 r0 = 0.74070006 x0 = 0.78299998 c1 = 0 c0 = 0 units = km normamps = 456 
New line.line_MCLD204_3827 bus1 = 487 bus2 = 482 length = 0.093900003 phases = 3 r1 = 0.24690002 x1 = 0.261 r0 = 0.74070003 x0 = 0.78299998 c1 = 0 c0 = 0 units = km normamps = 456 
New line.line_MCLD204_3831 bus1 = 482 bus2 = 531 length = 0.064499997 phases = 3 r1 = 0.24690002 x1 = 0.26100001 r0 = 0.74070004 x0 = 0.78299997 c1 = 0 c0 = 0 units = km normamps = 456 
New line.line_MCLD204_3829 bus1 = 487 bus2 = 481 length = 0.1014 phases = 3 r1 = 0.24689999 x1 = 0.261 r0 = 0.74070006 x0 = 0.78300001 c1 = 0 c0 = 0 units = km normamps = 456 
New line.line_MCLD204_3832 bus1 = 484 bus2 = 479 length = 0.1417 phases = 3 r1 = 0.24690001 x1 = 0.26100003 r0 = 0.74070001 x0 = 0.78299996 c1 = 0 c0 = 0 units = km normamps = 456 
New line.line_MCLD204_3834 bus1 = 484 bus2 = 478 length = 0.093900003 phases = 3 r1 = 0.24690002 x1 = 0.261 r0 = 0.74070003 x0 = 0.78299998 c1 = 0 c0 = 0 units = km normamps = 456 
New line.line_MCLD204_3836 bus1 = 451 bus2 = 450 length = 0.15979999 phases = 3 r1 = 0.20059998 x1 = 0.40259998 r0 = 0.72000005 x0 = 1.4069999 c1 = 0 c0 = 0 units = km normamps = 576 
New line.line_MCLD204_3840 bus1 = 450 bus2 = 425 length = 0.2051 phases = 3 r1 = 0.20059999 x1 = 0.40259999 r0 = 0.72000005 x0 = 1.4069998 c1 = 0 c0 = 0 units = km normamps = 576 
New line.line_MCLD204_3837 bus1 = 480 bus2 = 474 length = 0.0757 phases = 3 r1 = 0.24690002 x1 = 0.26100001 r0 = 0.74070001 x0 = 0.78299995 c1 = 0 c0 = 0 units = km normamps = 456 
New line.line_MCLD204_3838 bus1 = 480 bus2 = 475 length = 0.093599997 phases = 3 r1 = 0.2469 x1 = 0.26100002 r0 = 0.74069997 x0 = 0.78299998 c1 = 0 c0 = 0 units = km normamps = 456 
New line.line_MCLD204_3842 bus1 = 476 bus2 = 470 length = 0.092699997 phases = 3 r1 = 0.24690002 x1 = 0.26100001 r0 = 0.74069998 x0 = 0.783 c1 = 0 c0 = 0 units = km normamps = 456 
New line.line_MCLD204_3844 bus1 = 476 bus2 = 472 length = 0.1019 phases = 3 r1 = 0.24690001 x1 = 0.26100001 r0 = 0.74069998 x0 = 0.78299999 c1 = 0 c0 = 0 units = km normamps = 456 
New line.line_MCLD204_3846 bus1 = 509 bus2 = 505 length = 0.033500001 phases = 3 r1 = 0.24690001 x1 = 0.261 r0 = 0.74070002 x0 = 0.783 c1 = 0 c0 = 0 units = km normamps = 456 
New line.line_MCLD204_3848 bus1 = 473 bus2 = 468 length = 0.1024 phases = 3 r1 = 0.24690001 x1 = 0.26100001 r0 = 0.74069999 x0 = 0.78300005 c1 = 0 c0 = 0 units = km normamps = 456 
New line.line_MCLD204_3849 bus1 = 473 bus2 = 467 length = 0.090300001 phases = 3 r1 = 0.24690001 x1 = 0.261 r0 = 0.74069999 x0 = 0.783 c1 = 0 c0 = 0 units = km normamps = 456 
New line.line_MCLD204_3856 bus1 = 467 bus2 = 534 length = 0.064499997 phases = 3 r1 = 0.24690002 x1 = 0.26100001 r0 = 0.74070004 x0 = 0.78299997 c1 = 0 c0 = 0 units = km normamps = 456 
New line.line_MCLD204_3855 bus1 = 506 bus2 = 503 length = 0.032600001 phases = 3 r1 = 0.2469 x1 = 0.26100001 r0 = 0.74070005 x0 = 0.78300001 c1 = 0 c0 = 0 units = km normamps = 456 
New line.line_MCLD204_3857 bus1 = 469 bus2 = 464 length = 0.1022 phases = 3 r1 = 0.24690001 x1 = 0.26100001 r0 = 0.74070004 x0 = 0.78299999 c1 = 0 c0 = 0 units = km normamps = 456 
New line.line_MCLD204_3858 bus1 = 469 bus2 = 463 length = 0.0902 phases = 3 r1 = 0.24690001 x1 = 0.26100002 r0 = 0.74069997 x0 = 0.783 c1 = 0 c0 = 0 units = km normamps = 456 
New line.line_MCLD204_3865 bus1 = 2301 bus2 = 2281 length = 0.2339 phases = 3 r1 = 0.2469 x1 = 0.26100001 r0 = 0.74070003 x0 = 0.78299994 c1 = 0 c0 = 0 units = km normamps = 456 
New line.line_MCLD204_3868 bus1 = 2281 bus2 = 2476 length = 0.093999997 phases = 3 r1 = 0.2469 x1 = 0.261 r0 = 0.74069995 x0 = 0.78300004 c1 = 0 c0 = 0 units = km normamps = 456 
New line.line_MCLD204_3860 bus1 = 504 bus2 = 501 length = 0.0286 phases = 3 r1 = 0.24690001 x1 = 0.261 r0 = 0.74069998 x0 = 0.78300004 c1 = 0 c0 = 0 units = km normamps = 456 
New line.line_MCLD204_3861 bus1 = 504 bus2 = 502 length = 0.0911 phases = 3 r1 = 0.24690001 x1 = 0.261 r0 = 0.74070004 x0 = 0.78299997 c1 = 0 c0 = 0 units = km normamps = 456 
New line.line_MCLD204_3862 bus1 = 465 bus2 = 462 length = 0.088299997 phases = 3 r1 = 0.24690002 x1 = 0.26100001 r0 = 0.74070005 x0 = 0.78300005 c1 = 0 c0 = 0 units = km normamps = 456 
New line.line_MCLD204_3863 bus1 = 465 bus2 = 461 length = 0.1012 phases = 3 r1 = 0.24690001 x1 = 0.261 r0 = 0.74069996 x0 = 0.78300001 c1 = 0 c0 = 0 units = km normamps = 456 
New line.line_MCLD204_3864 bus1 = 2478 bus2 = 2268 length = 0.2252 phases = 3 r1 = 1.0145001 x1 = 0.46790001 r0 = 1.7625001 x0 = 1.8902 c1 = 0 c0 = 0 units = km normamps = 201 
New line.line_MCLD204_3867 bus1 = 2268 bus2 = 2267 length = 0.1859 phases = 3 r1 = 1.0145001 x1 = 0.46790004 r0 = 1.7625001 x0 = 1.8902 c1 = 0 c0 = 0 units = km normamps = 201 
New line.line_MCLD204_3870 bus1 = 528 bus2 = 526 length = 0.13519999 phases = 3 r1 = 0.24690001 x1 = 0.26100001 r0 = 0.74069998 x0 = 0.78300002 c1 = 0 c0 = 0 units = km normamps = 456 
New line.line_MCLD204_3872 bus1 = 2267 bus2 = 2265 length = 0.0165 phases = 3 r1 = 1.0145001 x1 = 0.46790002 r0 = 1.7625001 x0 = 1.8902 c1 = 0 c0 = 0 units = km normamps = 201 
New line.line_MCLD204_3873 bus1 = 527 bus2 = 525 length = 0.0184 phases = 3 r1 = 0.24690001 x1 = 0.261 r0 = 0.74070003 x0 = 0.78299997 c1 = 0 c0 = 0 units = km normamps = 456 
New line.line_MCLD204_3877 bus1 = 525 bus2 = 522 length = 0.1769 phases = 3 r1 = 0.24690001 x1 = 0.26100001 r0 = 0.74069996 x0 = 0.78300001 c1 = 0 c0 = 0 units = km normamps = 456 
New line.line_MCLD204_3874 bus1 = 527 bus2 = 524 length = 0.14300001 phases = 3 r1 = 0.2469 x1 = 0.26100001 r0 = 0.7407 x0 = 0.783 c1 = 0 c0 = 0 units = km normamps = 456 
New line.line_MCLD204_3878 bus1 = 524 bus2 = 523 length = 0.1873 phases = 3 r1 = 0.24690001 x1 = 0.261 r0 = 0.74070002 x0 = 0.78300002 c1 = 0 c0 = 0 units = km normamps = 456 
New line.line_MCLD204_3880 bus1 = 2476 bus2 = 2297 length = 0.1843 phases = 3 r1 = 0.2469 x1 = 0.26100002 r0 = 0.7407 x0 = 0.78299999 c1 = 0 c0 = 0 units = km normamps = 456 
New line.line_MCLD204_3882 bus1 = 2297 bus2 = 2296 length = 0.033100002 phases = 3 r1 = 0.24690003 x1 = 0.26100002 r0 = 0.74070001 x0 = 0.78299998 c1 = 0 c0 = 0 units = km normamps = 456 
New line.line_MCLD204_3879 bus1 = 2267 bus2 = 2263 length = 0.1524 phases = 3 r1 = 0.79319253 x1 = 0.33669227 r0 = 2.1290933 x0 = 1.105206 c1 = 0 c0 = 0 units = km normamps = 223.52493 
New line.line_MCLD204_3893 bus1 = 2467 bus2 = 2466 length = 0.086900003 phases = 3 r1 = 0.2006 x1 = 0.40259999 r0 = 0.71999998 x0 = 1.4069999 c1 = 0 c0 = 0 units = km normamps = 576 
New line.line_MCLD204_3896 bus1 = 2466 bus2 = 2463 length = 0.063000001 phases = 3 r1 = 0.2006 x1 = 0.40259998 r0 = 0.72000004 x0 = 1.4069999 c1 = 0 c0 = 0 units = km normamps = 576 
New line.line_MCLD204_3895 bus1 = 2285 bus2 = 2283 length = 0.013 phases = 3 r1 = 0.32499998 x1 = 0.117 r0 = 0.975 x0 = 0.35099998 c1 = 0 c0 = 0 units = km normamps = 295 
New line.line_MCLD204_3897 bus1 = 2463 bus2 = 2462 length = 0.0294 phases = 3 r1 = 0.2006 x1 = 0.40260002 r0 = 0.72000005 x0 = 1.407 c1 = 0 c0 = 0 units = km normamps = 576 
New line.line_MCLD204_3898 bus1 = 2462 bus2 = 2461 length = 0.076899998 phases = 3 r1 = 0.2006 x1 = 0.40259997 r0 = 0.72000005 x0 = 1.407 c1 = 0 c0 = 0 units = km normamps = 576 
New line.line_MCLD204_3900 bus1 = 2458 bus2 = 2456 length = 0.0537 phases = 3 r1 = 0.2006 x1 = 0.4026 r0 = 0.72000003 x0 = 1.4069999 c1 = 0 c0 = 0 units = km normamps = 576 
New line.line_MCLD204_3902 bus1 = 2456 bus2 = 2455 length = 0.078100003 phases = 3 r1 = 0.2006 x1 = 0.4026 r0 = 0.72000005 x0 = 1.407 c1 = 0 c0 = 0 units = km normamps = 576 
New line.line_MCLD204_3901 bus1 = 2458 bus2 = 2321 length = 0.15800001 phases = 3 r1 = 1.0145001 x1 = 0.4679 r0 = 1.7625001 x0 = 1.8902 c1 = 0 c0 = 0 units = km normamps = 201 
New line.line_MCLD204_3903 bus1 = 2455 bus2 = 2454 length = 0.037700001 phases = 3 r1 = 0.2006 x1 = 0.40259999 r0 = 0.72000004 x0 = 1.4069999 c1 = 0 c0 = 0 units = km normamps = 576 
New line.line_MCLD204_3905 bus1 = 2454 bus2 = 2453 length = 0.20559999 phases = 3 r1 = 0.21544032 x1 = 0.35721363 r0 = 0.72663488 x0 = 1.2069921 c1 = 0 c0 = 0 units = km normamps = 537.53696 
New line.line_MCLD204_3904 bus1 = 2455 bus2 = 2332 length = 0.1736 phases = 3 r1 = 1.0145 x1 = 0.46790001 r0 = 1.7625001 x0 = 1.8902001 c1 = 0 c0 = 0 units = km normamps = 201 
New line.line_MCLD204_3906 bus1 = 2332 bus2 = 2331 length = 0.098999999 phases = 3 r1 = 1.0145001 x1 = 0.46789998 r0 = 1.7625 x0 = 1.8902 c1 = 0 c0 = 0 units = km normamps = 201 
New line.line_MCLD204_3909 bus1 = 2453 bus2 = 2452 length = 0.2554 phases = 3 r1 = 0.2469 x1 = 0.26100003 r0 = 0.74070001 x0 = 0.78300001 c1 = 0 c0 = 0 units = km normamps = 456 
New line.line_MCLD204_3911 bus1 = 2452 bus2 = 2451 length = 0.064999998 phases = 3 r1 = 0.24690002 x1 = 0.26100001 r0 = 0.74069999 x0 = 0.78300001 c1 = 0 c0 = 0 units = km normamps = 456 
New line.line_MCLD204_3908 bus1 = 2331 bus2 = 2330 length = 0.051899999 phases = 3 r1 = 1.0145 x1 = 0.46790002 r0 = 1.7625 x0 = 1.8902 c1 = 0 c0 = 0 units = km normamps = 201 
New line.line_MCLD204_3912 bus1 = 2328 bus2 = 2327 length = 0.088100001 phases = 3 r1 = 0.7394 x1 = 0.30480002 r0 = 2.2182001 x0 = 0.91440001 c1 = 0 c0 = 0 units = km normamps = 229 
New line.line_MCLD204_3913 bus1 = 2328 bus2 = 2326 length = 0.1486 phases = 3 r1 = 0.73940005 x1 = 0.3048 r0 = 2.2182 x0 = 0.91439992 c1 = 0 c0 = 0 units = km normamps = 229 
New line.line_MCLD204_3915 bus1 = 2449 bus2 = 2444 length = 0.0209 phases = 3 r1 = 0.24690001 x1 = 0.26100002 r0 = 0.7407 x0 = 0.78299994 c1 = 0 c0 = 0 units = km normamps = 456 
New line.line_MCLD204_3918 bus1 = 2444 bus2 = 2442 length = 0.093699999 phases = 3 r1 = 0.2469 x1 = 0.261 r0 = 0.74069999 x0 = 0.78299998 c1 = 0 c0 = 0 units = km normamps = 456 
New line.line_MCLD204_3919 bus1 = 2443 bus2 = 2338 length = 0.207 phases = 3 r1 = 1.0145001 x1 = 0.46790004 r0 = 1.7625001 x0 = 1.8902001 c1 = 0 c0 = 0 units = km normamps = 201 
New line.line_MCLD204_3921 bus1 = 2338 bus2 = 2337 length = 0.1745 phases = 3 r1 = 1.0145 x1 = 0.46790002 r0 = 1.7625001 x0 = 1.8902001 c1 = 0 c0 = 0 units = km normamps = 201 
New line.line_MCLD204_3920 bus1 = 2442 bus2 = 2440 length = 0.076300003 phases = 3 r1 = 0.2469 x1 = 0.26099999 r0 = 0.74070004 x0 = 0.78299998 c1 = 0 c0 = 0 units = km normamps = 456 
New line.line_MCLD204_3922 bus1 = 2440 bus2 = 2439 length = 0.065899998 phases = 3 r1 = 0.2469 x1 = 0.26100002 r0 = 0.74069998 x0 = 0.78299998 c1 = 0 c0 = 0 units = km normamps = 456 
New line.line_MCLD204_3923 bus1 = 2337 bus2 = 2334 length = 0.034899998 phases = 3 r1 = 1.0145 x1 = 0.46789999 r0 = 1.7625 x0 = 1.8902 c1 = 0 c0 = 0 units = km normamps = 201 
New line.line_MCLD204_3926 bus1 = 2334 bus2 = 568 length = 0.1946 phases = 3 r1 = 1.0145 x1 = 0.46790003 r0 = 1.7625 x0 = 1.8902001 c1 = 0 c0 = 0 units = km normamps = 201 
New line.line_MCLD204_3928 bus1 = 568 bus2 = 565 length = 0.53380001 phases = 3 r1 = 1.3588403 x1 = 0.49698055 r0 = 2.107446 x0 = 1.923852 c1 = 0 c0 = 0 units = km normamps = 174.01236 
New line.line_MCLD204_3927 bus1 = 2437 bus2 = 2319 length = 0.1811 phases = 3 r1 = 0.2469 x1 = 0.26100002 r0 = 0.74070006 x0 = 0.78300002 c1 = 0 c0 = 0 units = km normamps = 456 
New line.line_MCLD204_3929 bus1 = 2319 bus2 = 2318 length = 0.31349999 phases = 3 r1 = 0.2469 x1 = 0.261 r0 = 0.74070003 x0 = 0.78299997 c1 = 0 c0 = 0 units = km normamps = 456 
New line.line_MCLD204_3931 bus1 = 2318 bus2 = 2317 length = 0.2485 phases = 3 r1 = 0.2469 x1 = 0.26100002 r0 = 0.74070004 x0 = 0.78299999 c1 = 0 c0 = 0 units = km normamps = 456 
New line.line_MCLD204_3932 bus1 = 2317 bus2 = 2316 length = 0.029300001 phases = 3 r1 = 0.24690002 x1 = 0.26100001 r0 = 0.74070003 x0 = 0.78299998 c1 = 0 c0 = 0 units = km normamps = 456 
New line.line_MCLD204_3933 bus1 = 2316 bus2 = 2314 length = 0.3506 phases = 3 r1 = 0.24690002 x1 = 0.26100001 r0 = 0.74069999 x0 = 0.78299998 c1 = 0 c0 = 0 units = km normamps = 456 
New line.line_MCLD204_3935 bus1 = 2314 bus2 = 2312 length = 0.1276 phases = 3 r1 = 0.24690002 x1 = 0.261 r0 = 0.7407 x0 = 0.78299995 c1 = 0 c0 = 0 units = km normamps = 456 
New line.line_MCLD204_3940 bus1 = 2294 bus2 = 2290 length = 0.062700001 phases = 3 r1 = 0.20591674 x1 = 0.38633973 r0 = 0.72237703 x0 = 1.3353445 c1 = 0 c0 = 0 units = km normamps = 562.2201 
New line.line_MCLD204_3941 bus1 = 2290 bus2 = 2289 length = 0.1718 phases = 3 r1 = 0.2006 x1 = 0.40260002 r0 = 0.72000007 x0 = 1.407 c1 = 0 c0 = 0 units = km normamps = 576 
New line.line_MCLD204_3943 bus1 = 2289 bus2 = 2288 length = 0.024599999 phases = 3 r1 = 0.2006 x1 = 0.40259996 r0 = 0.72000005 x0 = 1.407 c1 = 0 c0 = 0 units = km normamps = 576 
New line.line_MCLD204_3942 bus1 = 2434 bus2 = 2431 length = 0.1218 phases = 3 r1 = 0.24690002 x1 = 0.26100002 r0 = 0.74070006 x0 = 0.783 c1 = 0 c0 = 0 units = km normamps = 456 
New line.line_MCLD204_3944 bus1 = 2431 bus2 = 2430 length = 0.27540001 phases = 3 r1 = 0.2469 x1 = 0.26099999 r0 = 0.74070001 x0 = 0.78299999 c1 = 0 c0 = 0 units = km normamps = 456 
New line.line_MCLD204_3945 bus1 = 2430 bus2 = 2429 length = 0.25189999 phases = 3 r1 = 0.24690001 x1 = 0.26100001 r0 = 0.74070005 x0 = 0.783 c1 = 0 c0 = 0 units = km normamps = 456 
New line.line_MCLD204_3946 bus1 = 2429 bus2 = 2427 length = 0.19859999 phases = 3 r1 = 0.24550072 x1 = 0.2368122 r0 = 0.7365021 x0 = 0.71043656 c1 = 0 c0 = 0 units = km normamps = 449.80312 
New line.line_MCLD204_3951 bus1 = 547 bus2 = 544 length = 0.037300002 phases = 3 r1 = 0.73940003 x1 = 0.30479999 r0 = 2.2182 x0 = 0.91440006 c1 = 0 c0 = 0 units = km normamps = 229 
New line.line_MCLD204_3952 bus1 = 547 bus2 = 546 length = 0.0634 phases = 3 r1 = 0.20059999 x1 = 0.40259999 r0 = 0.72000003 x0 = 1.4069999 c1 = 0 c0 = 0 units = km normamps = 576 
New line.line_MCLD204_3954 bus1 = 546 bus2 = 542 length = 0.0656 phases = 3 r1 = 0.2006 x1 = 0.40259999 r0 = 0.72000004 x0 = 1.407 c1 = 0 c0 = 0 units = km normamps = 576 
New line.line_MCLD204_3953 bus1 = 2425 bus2 = 561 length = 0.027899999 phases = 3 r1 = 0.20059999 x1 = 0.40259999 r0 = 0.72000004 x0 = 1.407 c1 = 0 c0 = 0 units = km normamps = 576 
New line.line_MCLD204_3955 bus1 = 561 bus2 = 560 length = 0.030999999 phases = 3 r1 = 0.20059999 x1 = 0.40260001 r0 = 0.72000005 x0 = 1.4069999 c1 = 0 c0 = 0 units = km normamps = 576 
New line.line_MCLD204_3956 bus1 = 542 bus2 = 553 length = 0.17649999 phases = 3 r1 = 0.20059999 x1 = 0.40259997 r0 = 0.71999998 x0 = 1.4069999 c1 = 0 c0 = 0 units = km normamps = 576 
New line.line_MCLD204_3957 bus1 = 560 bus2 = 559 length = 0.0273 phases = 3 r1 = 0.20059999 x1 = 0.40259999 r0 = 0.72000001 x0 = 1.4069999 c1 = 0 c0 = 0 units = km normamps = 576 
New line.line_MCLD204_3963 bus1 = 2390 bus2 = 556 length = 0.016000001 phases = 3 r1 = 0.20060001 x1 = 0.40259998 r0 = 0.72000003 x0 = 1.4069999 c1 = 0 c0 = 0 units = km normamps = 576 
New line.line_MCLD204_3969 bus1 = 556 bus2 = 2389 length = 0.1222 phases = 3 r1 = 0.2006 x1 = 0.40259999 r0 = 0.72000006 x0 = 1.4069999 c1 = 0 c0 = 0 units = km normamps = 576 
New line.line_MCLD204_3968 bus1 = 2390 bus2 = 2352 length = 0.1688 phases = 3 r1 = 1.6118 x1 = 0.48530001 r0 = 2.3877001 x0 = 1.9433 c1 = 0 c0 = 0 units = km normamps = 150 
New line.line_MCLD204_3973 bus1 = 2352 bus2 = 2351 length = 0.161 phases = 3 r1 = 1.6118 x1 = 0.48530001 r0 = 2.3877001 x0 = 1.9433 c1 = 0 c0 = 0 units = km normamps = 150 
New line.line_MCLD204_3970 bus1 = 2422 bus2 = 2392 length = 0.065800004 phases = 3 r1 = 1.6118 x1 = 0.48529999 r0 = 2.3877 x0 = 1.9433 c1 = 0 c0 = 0 units = km normamps = 150 
New line.line_MCLD204_3976 bus1 = 2351 bus2 = 2350 length = 0.1104 phases = 3 r1 = 1.6117999 x1 = 0.48530001 r0 = 2.3877001 x0 = 1.9433 c1 = 0 c0 = 0 units = km normamps = 150 
New line.line_MCLD204_3975 bus1 = 2420 bus2 = 2401 length = 0.035100002 phases = 3 r1 = 0.2006 x1 = 0.40259997 r0 = 0.72000003 x0 = 1.407 c1 = 0 c0 = 0 units = km normamps = 576 
New line.line_MCLD204_3980 bus1 = 2401 bus2 = NA_4449 length = 0.062600002 phases = 3 r1 = 0.2006 x1 = 0.4026 r0 = 0.72000005 x0 = 1.4069999 c1 = 0 c0 = 0 units = km normamps = 576 
New line.line_MCLD204_3978 bus1 = 2396 bus2 = 2395 length = 0.068999998 phases = 3 r1 = 1.6117999 x1 = 0.48530002 r0 = 2.3877001 x0 = 1.9433 c1 = 0 c0 = 0 units = km normamps = 150 
New line.line_MCLD204_3979 bus1 = 2396 bus2 = 2394 length = 0.23810001 phases = 3 r1 = 1.6118 x1 = 0.48530002 r0 = 2.3877002 x0 = 1.9433 c1 = 0 c0 = 0 units = km normamps = 150 
New line.line_MCLD204_3984 bus1 = 442 bus2 = 441 length = 0.081600003 phases = 3 r1 = 0.3184 x1 = 0.42369999 r0 = 0.83780005 x0 = 1.4285999 c1 = 0 c0 = 0 units = km normamps = 425 
New line.line_MCLD204_3993 bus1 = 441 bus2 = 437 length = 0.041099999 phases = 3 r1 = 0.31839999 x1 = 0.42370004 r0 = 0.83780006 x0 = 1.4285999 c1 = 0 c0 = 0 units = km normamps = 425 
New line.line_MCLD204_3982 bus1 = 2350 bus2 = 2349 length = 0.0305 phases = 3 r1 = 1.6118 x1 = 0.48529999 r0 = 2.3876999 x0 = 1.9432999 c1 = 0 c0 = 0 units = km normamps = 150 
New line.line_MCLD204_3991 bus1 = 2349 bus2 = 2347 length = 0.15440001 phases = 3 r1 = 1.6118001 x1 = 0.4853 r0 = 2.3877 x0 = 1.9432998 c1 = 0 c0 = 0 units = km normamps = 150 
New line.line_MCLD204_3986 bus1 = NA_4449 bus2 = 2400 length = 0.1956 phases = 3 r1 = 0.2006 x1 = 0.40259999 r0 = 0.72 x0 = 1.407 c1 = 0 c0 = 0 units = km normamps = 576 
New line.line_MCLD204_3996 bus1 = 2400 bus2 = NA_4391 length = 0.058899999 phases = 3 r1 = 0.20059999 x1 = 0.40260002 r0 = 0.72000004 x0 = 1.407 c1 = 0 c0 = 0 units = km normamps = 576 
New line.line_MCLD204_3989 bus1 = 2278 bus2 = 2275 length = 0.0418 phases = 3 r1 = 0.2006 x1 = 0.40260001 r0 = 0.72000001 x0 = 1.4069999 c1 = 0 c0 = 0 units = km normamps = 576 
New line.line_MCLD204_3994 bus1 = 440 bus2 = 439 length = 0.065300003 phases = 3 r1 = 0.3184 x1 = 0.4237 r0 = 0.83780002 x0 = 1.4285999 c1 = 0 c0 = 0 units = km normamps = 425 
New line.line_MCLD204_4001 bus1 = 563 bus2 = 436 length = 0.088 phases = 3 r1 = 0.20059999 x1 = 0.40259999 r0 = 0.72000005 x0 = 1.4069999 c1 = 0 c0 = 0 units = km normamps = 576 
New line.line_MCLD204_4007 bus1 = 436 bus2 = 435 length = 0.1539 phases = 3 r1 = 0.20059999 x1 = 0.40260001 r0 = 0.72000001 x0 = 1.4069999 c1 = 0 c0 = 0 units = km normamps = 576 
New line.line_MCLD204_4000 bus1 = 563 bus2 = 454 length = 0.0272 phases = 3 r1 = 0.73940006 x1 = 0.30479999 r0 = 2.2181999 x0 = 0.91439995 c1 = 0 c0 = 0 units = km normamps = 229 
New line.line_MCLD204_4006 bus1 = 454 bus2 = 460 length = 0.095100001 phases = 3 r1 = 0.73940001 x1 = 0.30480001 r0 = 2.2182 x0 = 0.91439992 c1 = 0 c0 = 0 units = km normamps = 229 
New line.line_MCLD204_3998 bus1 = 2344 bus2 = 2342 length = 0.037500001 phases = 3 r1 = 1.6117999 x1 = 0.48529999 r0 = 2.3877 x0 = 1.9433001 c1 = 0 c0 = 0 units = km normamps = 150 
New line.line_MCLD204_4004 bus1 = 2342 bus2 = 2341 length = 0.1479 phases = 3 r1 = 1.6117999 x1 = 0.4853 r0 = 2.3877 x0 = 1.9433 c1 = 0 c0 = 0 units = km normamps = 150 
New line.line_MCLD204_3999 bus1 = 2344 bus2 = 2343 length = 0.1295 phases = 3 r1 = 1.6117999 x1 = 0.4853 r0 = 2.3877002 x0 = 1.9433002 c1 = 0 c0 = 0 units = km normamps = 150 
New line.line_MCLD204_4005 bus1 = 2343 bus2 = 2340 length = 0.1104 phases = 3 r1 = 1.0145 x1 = 0.46790002 r0 = 1.7625 x0 = 1.8902 c1 = 0 c0 = 0 units = km normamps = 201 
New line.line_MCLD204_4013 bus1 = 435 bus2 = NA_4460 length = 0.0255 phases = 3 r1 = 0.20060001 x1 = 0.40259998 r0 = 0.72000001 x0 = 1.407 c1 = 0 c0 = 0 units = km normamps = 576 
New line.line_MCLD204_4009 bus1 = 2388 bus2 = 2355 length = 0.068300001 phases = 3 r1 = 1.6118 x1 = 0.48529999 r0 = 2.3877001 x0 = 1.9433 c1 = 0 c0 = 0 units = km normamps = 150 
New line.line_MCLD204_4016 bus1 = 2355 bus2 = 2354 length = 0.089599997 phases = 3 r1 = 1.6118 x1 = 0.48529999 r0 = 2.3877001 x0 = 1.9433001 c1 = 0 c0 = 0 units = km normamps = 150 
New line.line_MCLD204_4010 bus1 = 2416 bus2 = 564 length = 0.030999999 phases = 3 r1 = 0.31839998 x1 = 0.42370003 r0 = 0.83780001 x0 = 1.4285999 c1 = 0 c0 = 0 units = km normamps = 425 
New line.line_MCLD204_4018 bus1 = 564 bus2 = 2415 length = 0.078199998 phases = 3 r1 = 0.3184 x1 = 0.42370002 r0 = 0.83780004 x0 = 1.4286 c1 = 0 c0 = 0 units = km normamps = 425 
New line.line_MCLD204_4012 bus1 = 460 bus2 = 453 length = 0.017200001 phases = 3 r1 = 0.73940005 x1 = 0.3048 r0 = 2.2182 x0 = 0.91439995 c1 = 0 c0 = 0 units = km normamps = 229 
New line.line_MCLD204_4014 bus1 = 2386 bus2 = 2384 length = 0.031399999 phases = 3 r1 = 0.3184 x1 = 0.42370001 r0 = 0.83780004 x0 = 1.4286 c1 = 0 c0 = 0 units = km normamps = 425 
New line.line_MCLD204_4021 bus1 = 2384 bus2 = 2382 length = 0.0284 phases = 3 r1 = 0.31840001 x1 = 0.4237 r0 = 0.83780001 x0 = 1.4285999 c1 = 0 c0 = 0 units = km normamps = 425 
New line.line_MCLD204_4025 bus1 = 2406 bus2 = 2404 length = 0.029200001 phases = 3 r1 = 1.6118 x1 = 0.48530001 r0 = 2.3877001 x0 = 1.9433001 c1 = 0 c0 = 0 units = km normamps = 150 
New line.line_MCLD204_4030 bus1 = 2381 bus2 = 2379 length = 0.043900002 phases = 3 r1 = 0.3184 x1 = 0.4237 r0 = 0.83780004 x0 = 1.4285999 c1 = 0 c0 = 0 units = km normamps = 425 
New line.line_MCLD204_4033 bus1 = 2379 bus2 = 2378 length = 0.111 phases = 3 r1 = 0.31839997 x1 = 0.42370001 r0 = 0.83780009 x0 = 1.4285999 c1 = 0 c0 = 0 units = km normamps = 425 
New line.line_MCLD204_4029 bus1 = 2382 bus2 = 2368 length = 0.038899999 phases = 3 r1 = 1.0145 x1 = 0.4679 r0 = 1.7625001 x0 = 1.8902 c1 = 0 c0 = 0 units = km normamps = 201 
New line.line_MCLD204_4028 bus1 = 2362 bus2 = 2359 length = 0.0186 phases = 3 r1 = 1.6117999 x1 = 0.48530005 r0 = 2.3877002 x0 = 1.9433001 c1 = 0 c0 = 0 units = km normamps = 150 
New line.line_MCLD204_4032 bus1 = 2381 bus2 = 2376 length = 0.047800001 phases = 3 r1 = 1.6118 x1 = 0.48530001 r0 = 2.3877002 x0 = 1.9433 c1 = 0 c0 = 0 units = km normamps = 150 
New line.line_MCLD204_4035 bus1 = 2376 bus2 = 2375 length = 0.15539999 phases = 3 r1 = 1.6118 x1 = 0.48530001 r0 = 2.3877 x0 = 1.9433001 c1 = 0 c0 = 0 units = km normamps = 150 
New line.line_MCLD204_4034 bus1 = 2366 bus2 = 2364 length = 0.022 phases = 3 r1 = 1.6118001 x1 = 0.48530001 r0 = 2.3877001 x0 = 1.9433 c1 = 0 c0 = 0 units = km normamps = 150 
New line.line_MCLD204_4036 bus1 = 2375 bus2 = 2374 length = 0.066399999 phases = 3 r1 = 1.6117999 x1 = 0.48530003 r0 = 2.3877002 x0 = 1.9433 c1 = 0 c0 = 0 units = km normamps = 150 
New line.line_MCLD204_4037 bus1 = 2374 bus2 = 2371 length = 0.1441 phases = 3 r1 = 0.73940006 x1 = 0.3048 r0 = 2.2181999 x0 = 0.91439999 c1 = 0 c0 = 0 units = km normamps = 229 
New line.line_MCLD204_4038 bus1 = 2374 bus2 = 2372 length = 0.1671 phases = 3 r1 = 1.6118001 x1 = 0.48530003 r0 = 2.3877 x0 = 1.9433 c1 = 0 c0 = 0 units = km normamps = 150 
New line.line_MCLD204_3805 bus1 = 516 bus2 = 2488 length = 0.3344 phases = 3 r1 = 0.2006 x1 = 0.40260001 r0 = 0.72000001 x0 = 1.4069999 c1 = 0 c0 = 0 units = km normamps = 576 
New line.line_MCLD204_3809 bus1 = 2488 bus2 = 2486 length = 0.072999999 phases = 3 r1 = 0.2006 x1 = 0.40259998 r0 = 0.72000002 x0 = 1.4069999 c1 = 0 c0 = 0 units = km normamps = 576 
New line.line_MCLD204_3810 bus1 = 530 bus2 = 498 length = 0.2089 phases = 3 r1 = 0.24690001 x1 = 0.261 r0 = 0.74070005 x0 = 0.78299997 c1 = 0 c0 = 0 units = km normamps = 456 
New line.line_MCLD204_3830 bus1 = 2479 bus2 = 451 length = 0.062399998 phases = 3 r1 = 0.20059999 x1 = 0.40259999 r0 = 0.72000004 x0 = 1.4069999 c1 = 0 c0 = 0 units = km normamps = 576 
New line.line_MCLD204_3841 bus1 = 531 bus2 = 509 length = 0.086900003 phases = 3 r1 = 0.24690002 x1 = 0.261 r0 = 0.74069999 x0 = 0.78300002 c1 = 0 c0 = 0 units = km normamps = 456 
New line.line_MCLD204_3835 bus1 = 451 bus2 = 2304 length = 0.0392 phases = 3 r1 = 0.20059999 x1 = 0.4026 r0 = 0.71999999 x0 = 1.407 c1 = 0 c0 = 0 units = km normamps = 576 
New line.line_MCLD204_3845 bus1 = 2304 bus2 = 2301 length = 0.0112 phases = 3 r1 = 0.24690001 x1 = 0.261 r0 = 0.74070002 x0 = 0.78300001 c1 = 0 c0 = 0 units = km normamps = 456 
New line.line_MCLD204_3851 bus1 = 2301 bus2 = 2478 length = 0.0088999998 phases = 3 r1 = 0.2469 x1 = 0.26100001 r0 = 0.74070003 x0 = 0.783 c1 = 0 c0 = 0 units = km normamps = 456 
New line.line_MCLD204_3866 bus1 = 534 bus2 = 528 length = 0.087099999 phases = 3 r1 = 0.24690002 x1 = 0.261 r0 = 0.74070002 x0 = 0.783 c1 = 0 c0 = 0 units = km normamps = 456 
New line.line_MCLD204_3884 bus1 = 2296 bus2 = 2475 length = 0.057300001 phases = 3 r1 = 0.24690001 x1 = 0.261 r0 = 0.74070001 x0 = 0.78299998 c1 = 0 c0 = 0 units = km normamps = 456 
New line.line_MCLD204_3889 bus1 = 2475 bus2 = 2471 length = 0.1016 phases = 3 r1 = 0.24690001 x1 = 0.26100001 r0 = 0.74070001 x0 = 0.783 c1 = 0 c0 = 0 units = km normamps = 456 
New line.line_MCLD204_3887 bus1 = 2296 bus2 = 2474 length = 0.016799999 phases = 3 r1 = 0.72602501 x1 = 0.29558571 r0 = 2.1780749 x0 = 0.88675709 c1 = 0 c0 = 0 units = km normamps = 226.08333 
New line.line_MCLD204_3890 bus1 = 2474 bus2 = 2285 length = 0.0133 phases = 3 r1 = 0.73940007 x1 = 0.30480002 r0 = 2.2181999 x0 = 0.91439998 c1 = 0 c0 = 0 units = km normamps = 229 
New line.line_MCLD204_3891 bus1 = 2471 bus2 = 2467 length = 0.0396 phases = 3 r1 = 0.20059999 x1 = 0.40259997 r0 = 0.72000002 x0 = 1.4069999 c1 = 0 c0 = 0 units = km normamps = 576 
New line.line_MCLD204_3899 bus1 = 2461 bus2 = 2458 length = 0.1786 phases = 3 r1 = 0.20060001 x1 = 0.40259999 r0 = 0.72000002 x0 = 1.407 c1 = 0 c0 = 0 units = km normamps = 576 
New line.line_MCLD204_3910 bus1 = 2331 bus2 = 2328 length = 0.1652 phases = 3 r1 = 0.73940005 x1 = 0.30480002 r0 = 2.2182 x0 = 0.91439996 c1 = 0 c0 = 0 units = km normamps = 229 
New line.line_MCLD204_3914 bus1 = 2451 bus2 = 2449 length = 0.0403 phases = 3 r1 = 0.24690002 x1 = 0.261 r0 = 0.74069998 x0 = 0.78300003 c1 = 0 c0 = 0 units = km normamps = 456 
New line.line_MCLD204_3917 bus1 = 2449 bus2 = 2443 length = 0.0085000005 phases = 3 r1 = 1.0145001 x1 = 0.46789999 r0 = 1.7625001 x0 = 1.8901999 c1 = 0 c0 = 0 units = km normamps = 201 